data_crystal

_cell_length_a    28.82600
_cell_length_b    28.82600
_cell_length_c    7.20000
_cell_angle_alpha 90.00000
_cell_angle_beta  90.00000
_cell_angle_gamma 120.00000

_symmetry_space_group_name_Hall 'P 1'
_symmetry_space_group_name_H-M  'P 1'

loop_
_symmetry_equiv_pos_as_xyz
 'x,y,z'

loop_
_atom_site_label
_atom_site_type_symbol
_atom_site_fract_x
_atom_site_fract_y
_atom_site_fract_z
H          H       0.48160   0.68000   0.05280
H          H       0.32000   0.80160   0.05280
H          H       0.19840   0.51840   0.05280
H          H       0.51840   0.32000   0.05280
H          H       0.68000   0.19840   0.05280
H          H       0.80160   0.48160   0.05280
H          H       0.45290   0.58640   0.29675
H          H       0.41360   0.86650   0.29675
H          H       0.13350   0.54710   0.29675
H          H       0.54710   0.41360   0.29675
H          H       0.58640   0.13350   0.29675
H          H       0.86650   0.45290   0.29675
O          O       0.60580   0.58500   0.05580
O          O       0.41500   0.02080   0.05580
O          O       0.97920   0.39420   0.05580
O          O       0.39420   0.41500   0.05580
O          O       0.58500   0.97920   0.05580
O          O       0.02080   0.60580   0.05580
H          H       0.57830   0.48570   0.00565
H          H       0.51430   0.09260   0.00565
H          H       0.90740   0.42170   0.00565
H          H       0.42170   0.51430   0.00565
H          H       0.48570   0.90740   0.00565
H          H       0.09260   0.57830   0.00565
C          C       0.63790   0.63340   0.44960
C          C       0.36660   0.00450   0.44960
C          C       0.99550   0.36210   0.44960
C          C       0.36210   0.36660   0.44960
C          C       0.63340   0.99550   0.44960
C          C       0.00450   0.63790   0.44960
C          C       0.69100   0.63540   0.38985
C          C       0.36460   0.05560   0.38985
C          C       0.94440   0.30900   0.38985
C          C       0.30900   0.36460   0.38985
C          C       0.63540   0.94440   0.38985
C          C       0.05560   0.69100   0.38985
P          P       0.75630   0.69390   0.48680
P          P       0.30610   0.06240   0.48680
P          P       0.93760   0.24370   0.48680
P          P       0.24370   0.30610   0.48680
P          P       0.69390   0.93760   0.48680
P          P       0.06240   0.75630   0.48680
O          O       0.78490   0.66380   0.12625
O          O       0.33620   0.12110   0.12625
O          O       0.87890   0.21510   0.12625
O          O       0.21510   0.33620   0.12625
O          O       0.66380   0.87890   0.12625
O          O       0.12110   0.78490   0.12625
O          O       0.80510   0.73380   0.36510
O          O       0.26620   0.07130   0.36510
O          O       0.92870   0.19490   0.36510
O          O       0.19490   0.26620   0.36510
O          O       0.73380   0.92870   0.36510
O          O       0.07130   0.80510   0.36510
O          O       0.74430   0.73650   0.13095
O          O       0.26350   0.00780   0.13095
O          O       0.99220   0.25570   0.13095
O          O       0.25570   0.26350   0.13095
O          O       0.73650   0.99220   0.13095
O          O       0.00780   0.74430   0.13095
C          C       0.81880   0.64990   0.02610
C          C       0.35010   0.16890   0.02610
C          C       0.83110   0.18120   0.02610
C          C       0.18120   0.35010   0.02610
C          C       0.64990   0.83110   0.02610
C          C       0.16890   0.81880   0.02610
C          C       0.78810   0.59200   0.45240
C          C       0.40800   0.19610   0.45240
C          C       0.80390   0.21190   0.45240
C          C       0.21190   0.40800   0.45240
C          C       0.59200   0.80390   0.45240
C          C       0.19610   0.78810   0.45240
C          C       0.74500   0.77970   0.03275
C          C       0.22030   0.96530   0.03275
C          C       0.03470   0.25500   0.03275
C          C       0.25500   0.22030   0.03275
C          C       0.77970   0.03470   0.03275
C          C       0.96530   0.74500   0.03275
C          C       0.80260   0.82730   0.00040
C          C       0.17270   0.97530   0.00040
C          C       0.02470   0.19740   0.00040
C          C       0.19740   0.17270   0.00040
C          C       0.82730   0.02470   0.00040
C          C       0.97530   0.80260   0.00040
C          C       0.39250   0.70190   0.05340
C          C       0.29810   0.69060   0.05340
C          C       0.30940   0.60750   0.05340
C          C       0.60750   0.29810   0.05340
C          C       0.70190   0.30940   0.05340
C          C       0.69060   0.39250   0.05340
C          C       0.35750   0.72650   0.03720
C          C       0.27350   0.63100   0.03720
C          C       0.36900   0.64250   0.03720
C          C       0.64250   0.27350   0.03720
C          C       0.72650   0.36900   0.03720
C          C       0.63100   0.35750   0.03720
C          C       0.44610   0.45490   0.49610
C          C       0.54510   0.99120   0.49610
C          C       0.00880   0.55390   0.49610
C          C       0.55390   0.54510   0.49610
C          C       0.45490   0.00880   0.49610
C          C       0.99120   0.44610   0.49610
C          C       0.45610   0.50820   0.49140
C          C       0.49180   0.94790   0.49140
C          C       0.05210   0.54390   0.49140
C          C       0.54390   0.49180   0.49140
C          C       0.50820   0.05210   0.49140
C          C       0.94790   0.45610   0.49140
C          C       0.51450   0.60780   0.48860
C          C       0.39220   0.90670   0.48860
C          C       0.09330   0.48550   0.48860
C          C       0.48550   0.39220   0.48860
C          C       0.60780   0.09330   0.48860
C          C       0.90670   0.51450   0.48860
C          C       0.50920   0.55350   0.48605
C          C       0.44650   0.95570   0.48605
C          C       0.04430   0.49080   0.48605
C          C       0.49080   0.44650   0.48605
C          C       0.55350   0.04430   0.48605
C          C       0.95570   0.50920   0.48605
C          C       0.39830   0.61850   0.49780
C          C       0.38150   0.77980   0.49780
C          C       0.22020   0.60170   0.49780
C          C       0.60170   0.38150   0.49780
C          C       0.61850   0.22020   0.49780
C          C       0.77980   0.39830   0.49780
N          N       0.47690   0.61530   0.39615
N          N       0.38470   0.86160   0.39615
N          N       0.13840   0.52310   0.39615
N          N       0.52310   0.38470   0.39615
N          N       0.61530   0.13840   0.39615
N          N       0.86160   0.47690   0.39615
N          N       0.45590   0.64580   0.47480
N          N       0.35420   0.81010   0.47480
N          N       0.18990   0.54410   0.47480
N          N       0.54410   0.35420   0.47480
N          N       0.64580   0.18990   0.47480
N          N       0.81010   0.45590   0.47480
O          O       0.54880   0.64430   0.08345
O          O       0.35570   0.90450   0.08345
O          O       0.09550   0.45120   0.08345
O          O       0.45120   0.35570   0.08345
O          O       0.64430   0.09550   0.08345
O          O       0.90450   0.54880   0.08345
O          O       0.55900   0.26870   0.08260
O          O       0.73130   0.29030   0.08260
O          O       0.70970   0.44100   0.08260
O          O       0.44100   0.73130   0.08260
O          O       0.26870   0.70970   0.08260
O          O       0.29030   0.55900   0.08260
H          H       0.76790   0.56250   0.06600
H          H       0.43750   0.20540   0.06600
H          H       0.79460   0.23210   0.06600
H          H       0.23210   0.43750   0.06600
H          H       0.56250   0.79460   0.06600
H          H       0.20540   0.76790   0.06600
H          H       0.81700   0.58220   0.38315
H          H       0.41780   0.23480   0.38315
H          H       0.76520   0.18300   0.38315
H          H       0.18300   0.41780   0.38315
H          H       0.58220   0.76520   0.38315
H          H       0.23480   0.81700   0.38315
H          H       0.75690   0.58710   0.35150
H          H       0.41290   0.16980   0.35150
H          H       0.83020   0.24310   0.35150
H          H       0.24310   0.41290   0.35150
H          H       0.58710   0.83020   0.35150
H          H       0.16980   0.75690   0.35150
H          H       0.84330   0.67940   0.41725
H          H       0.32060   0.16390   0.41725
H          H       0.83610   0.15670   0.41725
H          H       0.15670   0.32060   0.41725
H          H       0.67940   0.83610   0.41725
H          H       0.16390   0.84330   0.41725
H          H       0.84890   0.65060   0.12475
H          H       0.34940   0.19830   0.12475
H          H       0.80170   0.15110   0.12475
H          H       0.15110   0.34940   0.12475
H          H       0.65060   0.80170   0.12475
H          H       0.19830   0.84890   0.12475
H          H       0.71980   0.76550   0.40680
H          H       0.23450   0.95430   0.40680
H          H       0.04570   0.28020   0.40680
H          H       0.28020   0.23450   0.40680
H          H       0.76550   0.04570   0.40680
H          H       0.95430   0.71980   0.40680
H          H       0.72460   0.79570   0.12090
H          H       0.20430   0.92890   0.12090
H          H       0.07110   0.27540   0.12090
H          H       0.27540   0.20430   0.12090
H          H       0.79570   0.07110   0.12090
H          H       0.92890   0.72460   0.12090
H          H       0.80640   0.86580   0.05300
H          H       0.13420   0.94060   0.05300
H          H       0.05940   0.19360   0.05300
H          H       0.19360   0.13420   0.05300
H          H       0.86580   0.05940   0.05300
H          H       0.94060   0.80640   0.05300
H          H       0.81190   0.83320   0.35225
H          H       0.16680   0.97870   0.35225
H          H       0.02130   0.18810   0.35225
H          H       0.18810   0.16680   0.35225
H          H       0.83320   0.02130   0.35225
H          H       0.97870   0.81190   0.35225
H          H       0.83380   0.82060   0.06785
H          H       0.17940   0.01320   0.06785
H          H       0.98680   0.16620   0.06785
H          H       0.16620   0.17940   0.06785
H          H       0.82060   0.98680   0.06785
H          H       0.01320   0.83380   0.06785
H          H       0.69170   0.63190   0.24190
H          H       0.36810   0.05980   0.24190
H          H       0.94020   0.30830   0.24190
H          H       0.30830   0.36810   0.24190
H          H       0.63190   0.94020   0.24190
H          H       0.05980   0.69170   0.24190
H          H       0.68910   0.59780   0.44035
H          H       0.40220   0.09130   0.44035
H          H       0.90870   0.31090   0.44035
H          H       0.31090   0.40220   0.44035
H          H       0.59780   0.90870   0.44035
H          H       0.09130   0.68910   0.44035
H          H       0.61530   0.63590   0.32940
H          H       0.36410   0.97940   0.32940
H          H       0.02060   0.38470   0.32940
H          H       0.38470   0.36410   0.32940
H          H       0.63590   0.02060   0.32940
H          H       0.97940   0.61530   0.32940
H          H       0.64750   0.66910   0.03685
H          H       0.33090   0.97840   0.03685
H          H       0.02160   0.35250   0.03685
H          H       0.35250   0.33090   0.03685
H          H       0.66910   0.02160   0.03685
H          H       0.97840   0.64750   0.03685
H          H       0.80190   0.37690   0.47465
H          H       0.62310   0.42500   0.47465
H          H       0.57500   0.19810   0.47465
H          H       0.19810   0.62310   0.47465
H          H       0.37690   0.57500   0.47465
H          H       0.42500   0.80190   0.47465
H          H       0.48160   0.68000   0.55280
H          H       0.32000   0.80160   0.55280
H          H       0.19840   0.51840   0.55280
H          H       0.51840   0.32000   0.55280
H          H       0.68000   0.19840   0.55280
H          H       0.80160   0.48160   0.55280
H          H       0.45290   0.58640   0.79675
H          H       0.41360   0.86650   0.79675
H          H       0.13350   0.54710   0.79675
H          H       0.54710   0.41360   0.79675
H          H       0.58640   0.13350   0.79675
H          H       0.86650   0.45290   0.79675
O          O       0.60580   0.58500   0.55580
O          O       0.41500   0.02080   0.55580
O          O       0.97920   0.39420   0.55580
O          O       0.39420   0.41500   0.55580
O          O       0.58500   0.97920   0.55580
O          O       0.02080   0.60580   0.55580
H          H       0.57830   0.48570   0.50565
H          H       0.51430   0.09260   0.50565
H          H       0.90740   0.42170   0.50565
H          H       0.42170   0.51430   0.50565
H          H       0.48570   0.90740   0.50565
H          H       0.09260   0.57830   0.50565
C          C       0.63790   0.63340   0.94960
C          C       0.36660   0.00450   0.94960
C          C       0.99550   0.36210   0.94960
C          C       0.36210   0.36660   0.94960
C          C       0.63340   0.99550   0.94960
C          C       0.00450   0.63790   0.94960
C          C       0.69100   0.63540   0.88985
C          C       0.36460   0.05560   0.88985
C          C       0.94440   0.30900   0.88985
C          C       0.30900   0.36460   0.88985
C          C       0.63540   0.94440   0.88985
C          C       0.05560   0.69100   0.88985
P          P       0.75630   0.69390   0.98680
P          P       0.30610   0.06240   0.98680
P          P       0.93760   0.24370   0.98680
P          P       0.24370   0.30610   0.98680
P          P       0.69390   0.93760   0.98680
P          P       0.06240   0.75630   0.98680
O          O       0.78490   0.66380   0.62625
O          O       0.33620   0.12110   0.62625
O          O       0.87890   0.21510   0.62625
O          O       0.21510   0.33620   0.62625
O          O       0.66380   0.87890   0.62625
O          O       0.12110   0.78490   0.62625
O          O       0.80510   0.73380   0.86510
O          O       0.26620   0.07130   0.86510
O          O       0.92870   0.19490   0.86510
O          O       0.19490   0.26620   0.86510
O          O       0.73380   0.92870   0.86510
O          O       0.07130   0.80510   0.86510
O          O       0.74430   0.73650   0.63095
O          O       0.26350   0.00780   0.63095
O          O       0.99220   0.25570   0.63095
O          O       0.25570   0.26350   0.63095
O          O       0.73650   0.99220   0.63095
O          O       0.00780   0.74430   0.63095
C          C       0.81880   0.64990   0.52610
C          C       0.35010   0.16890   0.52610
C          C       0.83110   0.18120   0.52610
C          C       0.18120   0.35010   0.52610
C          C       0.64990   0.83110   0.52610
C          C       0.16890   0.81880   0.52610
C          C       0.78810   0.59200   0.95240
C          C       0.40800   0.19610   0.95240
C          C       0.80390   0.21190   0.95240
C          C       0.21190   0.40800   0.95240
C          C       0.59200   0.80390   0.95240
C          C       0.19610   0.78810   0.95240
C          C       0.74500   0.77970   0.53275
C          C       0.22030   0.96530   0.53275
C          C       0.03470   0.25500   0.53275
C          C       0.25500   0.22030   0.53275
C          C       0.77970   0.03470   0.53275
C          C       0.96530   0.74500   0.53275
C          C       0.80260   0.82730   0.50040
C          C       0.17270   0.97530   0.50040
C          C       0.02470   0.19740   0.50040
C          C       0.19740   0.17270   0.50040
C          C       0.82730   0.02470   0.50040
C          C       0.97530   0.80260   0.50040
C          C       0.39250   0.70190   0.55340
C          C       0.29810   0.69060   0.55340
C          C       0.30940   0.60750   0.55340
C          C       0.60750   0.29810   0.55340
C          C       0.70190   0.30940   0.55340
C          C       0.69060   0.39250   0.55340
C          C       0.35750   0.72650   0.53720
C          C       0.27350   0.63100   0.53720
C          C       0.36900   0.64250   0.53720
C          C       0.64250   0.27350   0.53720
C          C       0.72650   0.36900   0.53720
C          C       0.63100   0.35750   0.53720
C          C       0.44610   0.45490   0.99610
C          C       0.54510   0.99120   0.99610
C          C       0.00880   0.55390   0.99610
C          C       0.55390   0.54510   0.99610
C          C       0.45490   0.00880   0.99610
C          C       0.99120   0.44610   0.99610
C          C       0.45610   0.50820   0.99140
C          C       0.49180   0.94790   0.99140
C          C       0.05210   0.54390   0.99140
C          C       0.54390   0.49180   0.99140
C          C       0.50820   0.05210   0.99140
C          C       0.94790   0.45610   0.99140
C          C       0.51450   0.60780   0.98860
C          C       0.39220   0.90670   0.98860
C          C       0.09330   0.48550   0.98860
C          C       0.48550   0.39220   0.98860
C          C       0.60780   0.09330   0.98860
C          C       0.90670   0.51450   0.98860
C          C       0.50920   0.55350   0.98605
C          C       0.44650   0.95570   0.98605
C          C       0.04430   0.49080   0.98605
C          C       0.49080   0.44650   0.98605
C          C       0.55350   0.04430   0.98605
C          C       0.95570   0.50920   0.98605
C          C       0.39830   0.61850   0.99780
C          C       0.38150   0.77980   0.99780
C          C       0.22020   0.60170   0.99780
C          C       0.60170   0.38150   0.99780
C          C       0.61850   0.22020   0.99780
C          C       0.77980   0.39830   0.99780
N          N       0.47690   0.61530   0.89615
N          N       0.38470   0.86160   0.89615
N          N       0.13840   0.52310   0.89615
N          N       0.52310   0.38470   0.89615
N          N       0.61530   0.13840   0.89615
N          N       0.86160   0.47690   0.89615
N          N       0.45590   0.64580   0.97480
N          N       0.35420   0.81010   0.97480
N          N       0.18990   0.54410   0.97480
N          N       0.54410   0.35420   0.97480
N          N       0.64580   0.18990   0.97480
N          N       0.81010   0.45590   0.97480
O          O       0.54880   0.64430   0.58345
O          O       0.35570   0.90450   0.58345
O          O       0.09550   0.45120   0.58345
O          O       0.45120   0.35570   0.58345
O          O       0.64430   0.09550   0.58345
O          O       0.90450   0.54880   0.58345
O          O       0.55900   0.26870   0.58260
O          O       0.73130   0.29030   0.58260
O          O       0.70970   0.44100   0.58260
O          O       0.44100   0.73130   0.58260
O          O       0.26870   0.70970   0.58260
O          O       0.29030   0.55900   0.58260
H          H       0.76790   0.56250   0.56600
H          H       0.43750   0.20540   0.56600
H          H       0.79460   0.23210   0.56600
H          H       0.23210   0.43750   0.56600
H          H       0.56250   0.79460   0.56600
H          H       0.20540   0.76790   0.56600
H          H       0.81700   0.58220   0.88315
H          H       0.41780   0.23480   0.88315
H          H       0.76520   0.18300   0.88315
H          H       0.18300   0.41780   0.88315
H          H       0.58220   0.76520   0.88315
H          H       0.23480   0.81700   0.88315
H          H       0.75690   0.58710   0.85150
H          H       0.41290   0.16980   0.85150
H          H       0.83020   0.24310   0.85150
H          H       0.24310   0.41290   0.85150
H          H       0.58710   0.83020   0.85150
H          H       0.16980   0.75690   0.85150
H          H       0.84330   0.67940   0.91725
H          H       0.32060   0.16390   0.91725
H          H       0.83610   0.15670   0.91725
H          H       0.15670   0.32060   0.91725
H          H       0.67940   0.83610   0.91725
H          H       0.16390   0.84330   0.91725
H          H       0.84890   0.65060   0.62475
H          H       0.34940   0.19830   0.62475
H          H       0.80170   0.15110   0.62475
H          H       0.15110   0.34940   0.62475
H          H       0.65060   0.80170   0.62475
H          H       0.19830   0.84890   0.62475
H          H       0.71980   0.76550   0.90680
H          H       0.23450   0.95430   0.90680
H          H       0.04570   0.28020   0.90680
H          H       0.28020   0.23450   0.90680
H          H       0.76550   0.04570   0.90680
H          H       0.95430   0.71980   0.90680
H          H       0.72460   0.79570   0.62090
H          H       0.20430   0.92890   0.62090
H          H       0.07110   0.27540   0.62090
H          H       0.27540   0.20430   0.62090
H          H       0.79570   0.07110   0.62090
H          H       0.92890   0.72460   0.62090
H          H       0.80640   0.86580   0.55300
H          H       0.13420   0.94060   0.55300
H          H       0.05940   0.19360   0.55300
H          H       0.19360   0.13420   0.55300
H          H       0.86580   0.05940   0.55300
H          H       0.94060   0.80640   0.55300
H          H       0.81190   0.83320   0.85225
H          H       0.16680   0.97870   0.85225
H          H       0.02130   0.18810   0.85225
H          H       0.18810   0.16680   0.85225
H          H       0.83320   0.02130   0.85225
H          H       0.97870   0.81190   0.85225
H          H       0.83380   0.82060   0.56785
H          H       0.17940   0.01320   0.56785
H          H       0.98680   0.16620   0.56785
H          H       0.16620   0.17940   0.56785
H          H       0.82060   0.98680   0.56785
H          H       0.01320   0.83380   0.56785
H          H       0.69170   0.63190   0.74190
H          H       0.36810   0.05980   0.74190
H          H       0.94020   0.30830   0.74190
H          H       0.30830   0.36810   0.74190
H          H       0.63190   0.94020   0.74190
H          H       0.05980   0.69170   0.74190
H          H       0.68910   0.59780   0.94035
H          H       0.40220   0.09130   0.94035
H          H       0.90870   0.31090   0.94035
H          H       0.31090   0.40220   0.94035
H          H       0.59780   0.90870   0.94035
H          H       0.09130   0.68910   0.94035
H          H       0.61530   0.63590   0.82940
H          H       0.36410   0.97940   0.82940
H          H       0.02060   0.38470   0.82940
H          H       0.38470   0.36410   0.82940
H          H       0.63590   0.02060   0.82940
H          H       0.97940   0.61530   0.82940
H          H       0.64750   0.66910   0.53685
H          H       0.33090   0.97840   0.53685
H          H       0.02160   0.35250   0.53685
H          H       0.35250   0.33090   0.53685
H          H       0.66910   0.02160   0.53685
H          H       0.97840   0.64750   0.53685
H          H       0.80190   0.37690   0.97465
H          H       0.62310   0.42500   0.97465
H          H       0.57500   0.19810   0.97465
H          H       0.19810   0.62310   0.97465
H          H       0.37690   0.57500   0.97465
H          H       0.42500   0.80190   0.97465
