data_crystal

_cell_length_a    39.47220
_cell_length_b    39.47220
_cell_length_c    8.17220
_cell_angle_alpha 90.00000
_cell_angle_beta  90.00000
_cell_angle_gamma 120.00000

_symmetry_space_group_name_Hall 'P 1'
_symmetry_space_group_name_H-M  'P 1'

loop_
_symmetry_equiv_pos_as_xyz
 'x,y,z'

loop_
_atom_site_label
_atom_site_type_symbol
_atom_site_fract_x
_atom_site_fract_y
_atom_site_fract_z
C          C       0.29017   0.64280   0.26475
C          C       0.35720   0.64737   0.26475
C          C       0.35263   0.70983   0.26475
C          C       0.31434   0.62416   0.26473
C          C       0.37584   0.69018   0.26473
C          C       0.30982   0.68566   0.26473
C          C       0.24437   0.61743   0.26502
C          C       0.38257   0.62694   0.26502
C          C       0.37306   0.75563   0.26502
C          C       0.36758   0.58739   0.19962
C          C       0.41261   0.78019   0.19962
C          C       0.21981   0.63242   0.19962
C          C       0.39105   0.56841   0.19995
C          C       0.43159   0.82264   0.19995
C          C       0.17736   0.60895   0.19995
C          C       0.43102   0.58858   0.26497
C          C       0.41142   0.84244   0.26497
C          C       0.15756   0.56898   0.26497
C          C       0.44650   0.62840   0.32806
C          C       0.37160   0.81810   0.32806
C          C       0.18190   0.55350   0.32806
C          C       0.42257   0.64681   0.32996
C          C       0.35319   0.77576   0.32996
C          C       0.22424   0.57743   0.32996
N          N       0.45721   0.57153   0.25849
N          N       0.42847   0.88568   0.25849
N          N       0.11432   0.54279   0.25849
C          C       0.44230   0.53317   0.29968
C          C       0.46683   0.90913   0.29968
C          C       0.09087   0.55770   0.29968
C          C       0.46703   0.51309   0.29101
C          C       0.48691   0.95394   0.29101
C          C       0.04606   0.53297   0.29101
C          C       0.45483   0.47379   0.35753
C          C       0.52621   0.98104   0.35753
C          C       0.01896   0.54517   0.35753
C          C       0.47953   0.45522   0.34303
C          C       0.54478   0.02431   0.34303
C          C       0.97569   0.52047   0.34303
H          H       0.29940   0.59070   0.26466
H          H       0.40930   0.70870   0.26466
H          H       0.29130   0.70060   0.26466
H          H       0.33684   0.57105   0.14441
H          H       0.42895   0.76579   0.14441
H          H       0.23421   0.66316   0.14441
H          H       0.37854   0.53777   0.14519
H          H       0.46223   0.84077   0.14519
H          H       0.15923   0.62146   0.14519
H          H       0.47749   0.64471   0.38070
H          H       0.35529   0.83278   0.38070
H          H       0.16722   0.52251   0.38070
H          H       0.43536   0.67749   0.38459
H          H       0.32251   0.75787   0.38459
H          H       0.24213   0.56464   0.38459
H          H       0.41004   0.51462   0.34502
H          H       0.48538   0.89542   0.34502
H          H       0.10458   0.58996   0.34502
N          N       0.52641   0.56914   0.12772
N          N       0.43086   0.95727   0.12772
N          N       0.04273   0.47359   0.12772
N          N       0.56566   0.54036   0.10502
N          N       0.45964   0.02530   0.10502
N          N       0.97470   0.43434   0.10502
C          C       0.56225   0.57292   0.06595
C          C       0.42708   0.98933   0.06595
C          C       0.01067   0.43775   0.06595
H          H       0.51537   0.58900   0.11268
H          H       0.41100   0.92637   0.11268
H          H       0.07363   0.48463   0.11268
H          H       0.58467   0.59961   0.49461
H          H       0.40039   0.98506   0.49461
H          H       0.01494   0.41533   0.49461
C          C       0.70980   0.35745   0.26458
C          C       0.64255   0.35235   0.26458
C          C       0.64765   0.29020   0.26458
C          C       0.68537   0.37583   0.26419
C          C       0.62417   0.30954   0.26419
C          C       0.69046   0.31463   0.26419
C          C       0.75551   0.38313   0.27191
C          C       0.61687   0.37238   0.27191
C          C       0.62762   0.24449   0.27191
C          C       0.63057   0.41189   0.20797
C          C       0.58811   0.21868   0.20797
C          C       0.78132   0.36943   0.20797
C          C       0.60696   0.43064   0.21899
C          C       0.56936   0.17632   0.21899
C          C       0.82368   0.39304   0.21899
C          C       0.56820   0.41038   0.29609
C          C       0.58962   0.15782   0.29609
C          C       0.84218   0.43180   0.29609
C          C       0.55453   0.37095   0.36138
C          C       0.62905   0.18358   0.36138
C          C       0.81642   0.44547   0.36138
C          C       0.57812   0.35236   0.34843
C          C       0.64764   0.22576   0.34843
C          C       0.77424   0.42188   0.34843
N          N       0.54207   0.42683   0.32289
N          N       0.57317   0.11524   0.32289
N          N       0.88476   0.45793   0.32289
C          C       0.54557   0.45783   0.23666
C          C       0.54217   0.08774   0.23666
C          C       0.91226   0.45443   0.23666
C          C       0.51823   0.47495   0.26264
C          C       0.52505   0.04328   0.26264
C          C       0.95672   0.48177   0.26264
C          C       0.53032   0.51404   0.19426
C          C       0.48596   0.01628   0.19426
C          C       0.98372   0.46968   0.19426
C          C       0.50546   0.53204   0.20949
C          C       0.46796   0.97342   0.20949
C          C       0.02658   0.49454   0.20949
H          H       0.70004   0.40928   0.26504
H          H       0.59072   0.29076   0.26504
H          H       0.70924   0.29996   0.26504
H          H       0.66056   0.42845   0.14625
H          H       0.57155   0.23211   0.14625
H          H       0.76789   0.33944   0.14625
H          H       0.61909   0.46162   0.16843
H          H       0.53838   0.15747   0.16843
H          H       0.84253   0.38091   0.16843
H          H       0.52460   0.35476   0.42348
H          H       0.64524   0.16984   0.42348
H          H       0.83016   0.47540   0.42348
H          H       0.56652   0.32183   0.40298
H          H       0.67817   0.24469   0.40298
H          H       0.75531   0.43348   0.40298
H          H       0.56944   0.47364   0.13706
H          H       0.52636   0.09580   0.13706
H          H       0.90420   0.43056   0.13706
C          C       0.58720   0.04981   0.41476
C          C       0.95019   0.53739   0.41476
C          C       0.46261   0.41280   0.41476
C          C       0.55000   0.96465   0.44980
C          C       0.03535   0.58535   0.44980
C          C       0.41465   0.45000   0.44980
H          H       0.60103   0.08161   0.37195
H          H       0.91839   0.51942   0.37195
H          H       0.48058   0.39897   0.37195
H          H       0.60699   0.03756   0.37761
H          H       0.96244   0.56943   0.37761
H          H       0.43057   0.39301   0.37761
H          H       0.58627   0.04999   0.05361
H          H       0.95001   0.53628   0.05361
H          H       0.46372   0.41373   0.05361
H          H       0.57663   0.96939   0.37544
H          H       0.03061   0.60724   0.37544
H          H       0.39276   0.42337   0.37544
H          H       0.53154   0.93202   0.47728
H          H       0.06798   0.59952   0.47728
H          H       0.40048   0.46846   0.47728
H          H       0.56156   0.98061   0.07053
H          H       0.01939   0.58095   0.07053
H          H       0.41905   0.43844   0.07053
C          C       0.29017   0.64280   0.76475
C          C       0.35720   0.64737   0.76475
C          C       0.35263   0.70983   0.76475
C          C       0.31434   0.62416   0.76473
C          C       0.37584   0.69018   0.76473
C          C       0.30982   0.68566   0.76473
C          C       0.24437   0.61743   0.76502
C          C       0.38257   0.62694   0.76502
C          C       0.37306   0.75563   0.76502
C          C       0.36758   0.58739   0.69962
C          C       0.41261   0.78019   0.69962
C          C       0.21981   0.63242   0.69962
C          C       0.39105   0.56841   0.69995
C          C       0.43159   0.82264   0.69995
C          C       0.17736   0.60895   0.69995
C          C       0.43102   0.58858   0.76497
C          C       0.41142   0.84244   0.76497
C          C       0.15756   0.56898   0.76497
C          C       0.44650   0.62840   0.82806
C          C       0.37160   0.81810   0.82806
C          C       0.18190   0.55350   0.82806
C          C       0.42257   0.64681   0.82996
C          C       0.35319   0.77576   0.82996
C          C       0.22424   0.57743   0.82996
N          N       0.45721   0.57153   0.75849
N          N       0.42847   0.88568   0.75849
N          N       0.11432   0.54279   0.75849
C          C       0.44230   0.53317   0.79968
C          C       0.46683   0.90913   0.79968
C          C       0.09087   0.55770   0.79968
C          C       0.46703   0.51309   0.79101
C          C       0.48691   0.95394   0.79101
C          C       0.04606   0.53297   0.79101
C          C       0.45483   0.47379   0.85754
C          C       0.52621   0.98104   0.85754
C          C       0.01896   0.54517   0.85754
C          C       0.47953   0.45522   0.84303
C          C       0.54478   0.02431   0.84303
C          C       0.97569   0.52047   0.84303
H          H       0.29940   0.59070   0.76466
H          H       0.40930   0.70870   0.76466
H          H       0.29130   0.70060   0.76466
H          H       0.33684   0.57105   0.64440
H          H       0.42895   0.76579   0.64440
H          H       0.23421   0.66316   0.64440
H          H       0.37854   0.53777   0.64519
H          H       0.46223   0.84077   0.64519
H          H       0.15923   0.62146   0.64519
H          H       0.47749   0.64471   0.88070
H          H       0.35529   0.83278   0.88070
H          H       0.16722   0.52251   0.88070
H          H       0.43536   0.67749   0.88459
H          H       0.32251   0.75787   0.88459
H          H       0.24213   0.56464   0.88459
H          H       0.41004   0.51462   0.84501
H          H       0.48538   0.89542   0.84501
H          H       0.10458   0.58996   0.84501
N          N       0.52641   0.56914   0.62772
N          N       0.43086   0.95727   0.62772
N          N       0.04273   0.47359   0.62772
N          N       0.56566   0.54036   0.60502
N          N       0.45964   0.02530   0.60502
N          N       0.97470   0.43434   0.60502
C          C       0.56225   0.57292   0.56595
C          C       0.42708   0.98933   0.56595
C          C       0.01067   0.43775   0.56595
H          H       0.51537   0.58900   0.61269
H          H       0.41100   0.92637   0.61269
H          H       0.07363   0.48463   0.61269
H          H       0.58467   0.59961   0.99461
H          H       0.40039   0.98506   0.99461
H          H       0.01494   0.41533   0.99461
C          C       0.70980   0.35745   0.76458
C          C       0.64255   0.35235   0.76458
C          C       0.64765   0.29020   0.76458
C          C       0.68537   0.37583   0.76418
C          C       0.62417   0.30954   0.76418
C          C       0.69046   0.31463   0.76418
C          C       0.75551   0.38313   0.77190
C          C       0.61687   0.37238   0.77190
C          C       0.62762   0.24449   0.77190
C          C       0.63057   0.41189   0.70797
C          C       0.58811   0.21868   0.70797
C          C       0.78132   0.36943   0.70797
C          C       0.60696   0.43064   0.71899
C          C       0.56936   0.17632   0.71899
C          C       0.82368   0.39304   0.71899
C          C       0.56820   0.41038   0.79609
C          C       0.58962   0.15782   0.79609
C          C       0.84218   0.43180   0.79609
C          C       0.55453   0.37095   0.86138
C          C       0.62905   0.18358   0.86138
C          C       0.81642   0.44547   0.86138
C          C       0.57812   0.35236   0.84843
C          C       0.64764   0.22576   0.84843
C          C       0.77424   0.42188   0.84843
N          N       0.54207   0.42683   0.82289
N          N       0.57317   0.11524   0.82289
N          N       0.88476   0.45793   0.82289
C          C       0.54557   0.45783   0.73667
C          C       0.54217   0.08774   0.73667
C          C       0.91226   0.45443   0.73667
C          C       0.51823   0.47495   0.76264
C          C       0.52505   0.04328   0.76264
C          C       0.95672   0.48177   0.76264
C          C       0.53032   0.51404   0.69426
C          C       0.48596   0.01628   0.69426
C          C       0.98372   0.46968   0.69426
C          C       0.50546   0.53204   0.70949
C          C       0.46796   0.97342   0.70949
C          C       0.02658   0.49454   0.70949
H          H       0.70004   0.40928   0.76504
H          H       0.59072   0.29076   0.76504
H          H       0.70924   0.29996   0.76504
H          H       0.66056   0.42845   0.64626
H          H       0.57155   0.23211   0.64626
H          H       0.76789   0.33944   0.64626
H          H       0.61909   0.46162   0.66843
H          H       0.53838   0.15747   0.66843
H          H       0.84253   0.38091   0.66843
H          H       0.52460   0.35476   0.92348
H          H       0.64524   0.16984   0.92348
H          H       0.83016   0.47540   0.92348
H          H       0.56652   0.32183   0.90298
H          H       0.67817   0.24469   0.90298
H          H       0.75531   0.43348   0.90298
H          H       0.56944   0.47364   0.63706
H          H       0.52636   0.09580   0.63706
H          H       0.90420   0.43056   0.63706
C          C       0.58720   0.04981   0.91476
C          C       0.95019   0.53739   0.91476
C          C       0.46261   0.41280   0.91476
C          C       0.55000   0.96465   0.94980
C          C       0.03535   0.58535   0.94980
C          C       0.41465   0.45000   0.94980
H          H       0.60103   0.08161   0.87195
H          H       0.91839   0.51942   0.87195
H          H       0.48058   0.39897   0.87195
H          H       0.60699   0.03756   0.87761
H          H       0.96244   0.56943   0.87761
H          H       0.43057   0.39301   0.87761
H          H       0.58627   0.04999   0.55361
H          H       0.95001   0.53628   0.55361
H          H       0.46372   0.41373   0.55361
H          H       0.57663   0.96939   0.87544
H          H       0.03061   0.60724   0.87544
H          H       0.39276   0.42337   0.87544
H          H       0.53154   0.93202   0.97728
H          H       0.06798   0.59952   0.97728
H          H       0.40048   0.46846   0.97728
H          H       0.56156   0.98061   0.57053
H          H       0.01939   0.58095   0.57053
H          H       0.41905   0.43844   0.57053
