data_crystal

_cell_length_a    34.03430
_cell_length_b    34.03430
_cell_length_c    6.88536
_cell_angle_alpha 90.00000
_cell_angle_beta  90.00000
_cell_angle_gamma 120.00000

_symmetry_space_group_name_Hall 'P 1'
_symmetry_space_group_name_H-M  'P 1'

loop_
_symmetry_equiv_pos_as_xyz
 'x,y,z'

loop_
_atom_site_label
_atom_site_type_symbol
_atom_site_fract_x
_atom_site_fract_y
_atom_site_fract_z
N          N       0.39144   0.59749   0.00000
N          N       0.40251   0.79395   0.00000
N          N       0.20605   0.60856   0.00000
N          N       0.60856   0.40251   0.00000
N          N       0.59749   0.20605   0.00000
N          N       0.79395   0.39144   0.00000
C          C       0.31994   0.62029   0.00000
C          C       0.37971   0.69965   0.00000
C          C       0.30035   0.68006   0.00000
C          C       0.68006   0.37971   0.00000
C          C       0.62029   0.30035   0.00000
C          C       0.69965   0.31994   0.00000
C          C       0.40228   0.64008   0.00000
C          C       0.35992   0.76220   0.00000
C          C       0.23780   0.59772   0.00000
C          C       0.59772   0.35992   0.00000
C          C       0.64008   0.23780   0.00000
C          C       0.76220   0.40228   0.00000
C          C       0.42196   0.57957   0.00000
C          C       0.42043   0.84239   0.00000
C          C       0.15761   0.57804   0.00000
C          C       0.57804   0.42043   0.00000
C          C       0.57957   0.15761   0.00000
C          C       0.84239   0.42196   0.00000
C          C       0.46979   0.60736   0.00000
C          C       0.39264   0.86243   0.00000
C          C       0.13757   0.53021   0.00000
C          C       0.53021   0.39264   0.00000
C          C       0.60736   0.13757   0.00000
C          C       0.86243   0.46979   0.00000
C          C       0.49749   0.58767   0.00000
C          C       0.41233   0.90982   0.00000
C          C       0.09018   0.50251   0.00000
C          C       0.50251   0.41233   0.00000
C          C       0.58767   0.09018   0.00000
C          C       0.90982   0.49749   0.00000
C          C       0.47822   0.54032   0.00000
C          C       0.45968   0.93790   0.00000
C          C       0.06210   0.52178   0.00000
C          C       0.52178   0.45968   0.00000
C          C       0.54032   0.06210   0.00000
C          C       0.93790   0.47822   0.00000
C          C       0.43059   0.51255   0.00000
C          C       0.48745   0.91804   0.00000
C          C       0.08196   0.56941   0.00000
C          C       0.56941   0.48745   0.00000
C          C       0.51255   0.08196   0.00000
C          C       0.91804   0.43059   0.00000
C          C       0.40286   0.53217   0.00000
C          C       0.46783   0.87069   0.00000
C          C       0.12931   0.59714   0.00000
C          C       0.59714   0.46783   0.00000
C          C       0.53217   0.12931   0.00000
C          C       0.87069   0.40286   0.00000
C          C       0.36661   0.65324   0.00000
C          C       0.34676   0.71337   0.00000
C          C       0.28663   0.63339   0.00000
C          C       0.63339   0.34676   0.00000
C          C       0.65324   0.28663   0.00000
C          C       0.71337   0.36661   0.00000
H          H       0.43748   0.66687   0.00000
H          H       0.33313   0.77061   0.00000
H          H       0.22939   0.56252   0.00000
H          H       0.56252   0.33313   0.00000
H          H       0.66687   0.22939   0.00000
H          H       0.77061   0.43748   0.00000
H          H       0.48629   0.64404   0.00000
H          H       0.35596   0.84225   0.00000
H          H       0.15775   0.51371   0.00000
H          H       0.51371   0.35596   0.00000
H          H       0.64404   0.15775   0.00000
H          H       0.84225   0.48629   0.00000
H          H       0.41559   0.72505   0.00000
H          H       0.27495   0.69054   0.00000
H          H       0.30946   0.58441   0.00000
H          H       0.58441   0.27495   0.00000
H          H       0.72505   0.30946   0.00000
H          H       0.69054   0.41559   0.00000
H          H       0.36620   0.51033   0.00000
H          H       0.48967   0.85587   0.00000
H          H       0.14413   0.63380   0.00000
H          H       0.63380   0.48967   0.00000
H          H       0.51033   0.14413   0.00000
H          H       0.85587   0.36620   0.00000
H          H       0.53417   0.60939   0.00000
H          H       0.39061   0.92478   0.00000
H          H       0.07522   0.46583   0.00000
H          H       0.46583   0.39061   0.00000
H          H       0.60939   0.07522   0.00000
H          H       0.92478   0.53417   0.00000
H          H       0.41483   0.47581   0.00000
H          H       0.52419   0.93902   0.00000
H          H       0.06098   0.58517   0.00000
H          H       0.58517   0.52419   0.00000
H          H       0.47581   0.06098   0.00000
H          H       0.93902   0.41483   0.00000
N          N       0.50767   0.52139   0.00000
N          N       0.47861   0.98628   0.00000
N          N       0.01372   0.49233   0.00000
N          N       0.49233   0.47861   0.00000
N          N       0.52139   0.01372   0.00000
N          N       0.98628   0.50767   0.00000
N          N       0.39144   0.59749   0.50000
N          N       0.40251   0.79395   0.50000
N          N       0.20605   0.60856   0.50000
N          N       0.60856   0.40251   0.50000
N          N       0.59749   0.20605   0.50000
N          N       0.79395   0.39144   0.50000
C          C       0.31994   0.62029   0.50000
C          C       0.37971   0.69965   0.50000
C          C       0.30035   0.68006   0.50000
C          C       0.68006   0.37971   0.50000
C          C       0.62029   0.30035   0.50000
C          C       0.69965   0.31994   0.50000
C          C       0.40228   0.64008   0.50000
C          C       0.35992   0.76220   0.50000
C          C       0.23780   0.59772   0.50000
C          C       0.59772   0.35992   0.50000
C          C       0.64008   0.23780   0.50000
C          C       0.76220   0.40228   0.50000
C          C       0.42196   0.57957   0.50000
C          C       0.42043   0.84239   0.50000
C          C       0.15761   0.57804   0.50000
C          C       0.57804   0.42043   0.50000
C          C       0.57957   0.15761   0.50000
C          C       0.84239   0.42196   0.50000
C          C       0.46979   0.60736   0.50000
C          C       0.39264   0.86243   0.50000
C          C       0.13757   0.53021   0.50000
C          C       0.53021   0.39264   0.50000
C          C       0.60736   0.13757   0.50000
C          C       0.86243   0.46979   0.50000
C          C       0.49749   0.58767   0.50000
C          C       0.41233   0.90982   0.50000
C          C       0.09018   0.50251   0.50000
C          C       0.50251   0.41233   0.50000
C          C       0.58767   0.09018   0.50000
C          C       0.90982   0.49749   0.50000
C          C       0.47822   0.54032   0.50000
C          C       0.45968   0.93790   0.50000
C          C       0.06210   0.52178   0.50000
C          C       0.52178   0.45968   0.50000
C          C       0.54032   0.06210   0.50000
C          C       0.93790   0.47822   0.50000
C          C       0.43059   0.51255   0.50000
C          C       0.48745   0.91804   0.50000
C          C       0.08196   0.56941   0.50000
C          C       0.56941   0.48745   0.50000
C          C       0.51255   0.08196   0.50000
C          C       0.91804   0.43059   0.50000
C          C       0.40286   0.53217   0.50000
C          C       0.46783   0.87069   0.50000
C          C       0.12931   0.59714   0.50000
C          C       0.59714   0.46783   0.50000
C          C       0.53217   0.12931   0.50000
C          C       0.87069   0.40286   0.50000
C          C       0.36661   0.65324   0.50000
C          C       0.34676   0.71337   0.50000
C          C       0.28663   0.63339   0.50000
C          C       0.63339   0.34676   0.50000
C          C       0.65324   0.28663   0.50000
C          C       0.71337   0.36661   0.50000
H          H       0.43748   0.66687   0.50000
H          H       0.33313   0.77061   0.50000
H          H       0.22939   0.56252   0.50000
H          H       0.56252   0.33313   0.50000
H          H       0.66687   0.22939   0.50000
H          H       0.77061   0.43748   0.50000
H          H       0.48629   0.64404   0.50000
H          H       0.35596   0.84225   0.50000
H          H       0.15775   0.51371   0.50000
H          H       0.51371   0.35596   0.50000
H          H       0.64404   0.15775   0.50000
H          H       0.84225   0.48629   0.50000
H          H       0.41559   0.72505   0.50000
H          H       0.27495   0.69054   0.50000
H          H       0.30946   0.58441   0.50000
H          H       0.58441   0.27495   0.50000
H          H       0.72505   0.30946   0.50000
H          H       0.69054   0.41559   0.50000
H          H       0.36620   0.51033   0.50000
H          H       0.48967   0.85587   0.50000
H          H       0.14413   0.63380   0.50000
H          H       0.63380   0.48967   0.50000
H          H       0.51033   0.14413   0.50000
H          H       0.85587   0.36620   0.50000
H          H       0.53417   0.60939   0.50000
H          H       0.39061   0.92478   0.50000
H          H       0.07522   0.46583   0.50000
H          H       0.46583   0.39061   0.50000
H          H       0.60939   0.07522   0.50000
H          H       0.92478   0.53417   0.50000
H          H       0.41483   0.47581   0.50000
H          H       0.52419   0.93902   0.50000
H          H       0.06098   0.58517   0.50000
H          H       0.58517   0.52419   0.50000
H          H       0.47581   0.06098   0.50000
H          H       0.93902   0.41483   0.50000
N          N       0.50767   0.52139   0.50000
N          N       0.47861   0.98628   0.50000
N          N       0.01372   0.49233   0.50000
N          N       0.49233   0.47861   0.50000
N          N       0.52139   0.01372   0.50000
N          N       0.98628   0.50767   0.50000
