data_crystal

_cell_length_a    32.62910
_cell_length_b    32.62910
_cell_length_c    6.95768
_cell_angle_alpha 90.00000
_cell_angle_beta  90.00000
_cell_angle_gamma 120.00000

_space_group_name_Hall 'P 1'
_space_group_name_H-M_alt  'P 1'

loop_
_symmetry_equiv_pos_as_xyz
 'x,y,z'

loop_
_atom_site_label
_atom_site_type_symbol
_atom_site_fract_x
_atom_site_fract_y
_atom_site_fract_z
N          N       0.36150   0.56757   0.00000
N          N       0.43243   0.79393   0.00000
N          N       0.20607   0.63850   0.00000
N          N       0.63850   0.43243   0.00000
N          N       0.56757   0.20607   0.00000
N          N       0.79393   0.36150   0.00000
C          C       0.30770   0.61512   0.00000
C          C       0.38488   0.69258   0.00000
C          C       0.30742   0.69230   0.00000
C          C       0.69230   0.38488   0.00000
C          C       0.61512   0.30742   0.00000
C          C       0.69258   0.30770   0.00000
C          C       0.38450   0.61545   0.00000
C          C       0.38455   0.76905   0.00000
C          C       0.23095   0.61550   0.00000
C          C       0.61550   0.38455   0.00000
C          C       0.61545   0.23095   0.00000
C          C       0.76905   0.38450   0.00000
C          C       0.39242   0.55186   0.00000
C          C       0.44814   0.84056   0.00000
C          C       0.15944   0.60758   0.00000
C          C       0.60758   0.44814   0.00000
C          C       0.55186   0.15944   0.00000
C          C       0.84056   0.39242   0.00000
C          C       0.43896   0.58766   0.00000
C          C       0.41234   0.85130   0.00000
C          C       0.14870   0.56104   0.00000
C          C       0.56104   0.41234   0.00000
C          C       0.58766   0.14870   0.00000
C          C       0.85130   0.43896   0.00000
C          C       0.47586   0.57798   0.00000
C          C       0.42202   0.89788   0.00000
C          C       0.10212   0.52414   0.00000
C          C       0.52414   0.42202   0.00000
C          C       0.57798   0.10212   0.00000
C          C       0.89788   0.47586   0.00000
C          C       0.46525   0.53081   0.00000
C          C       0.46919   0.93444   0.00000
C          C       0.06556   0.53475   0.00000
C          C       0.53475   0.46919   0.00000
C          C       0.53081   0.06556   0.00000
C          C       0.93444   0.46525   0.00000
C          C       0.41744   0.49400   0.00000
C          C       0.50600   0.92344   0.00000
C          C       0.07656   0.58256   0.00000
C          C       0.58256   0.50600   0.00000
C          C       0.49400   0.07656   0.00000
C          C       0.92344   0.41744   0.00000
C          C       0.37825   0.50264   0.00000
C          C       0.49736   0.87561   0.00000
C          C       0.12439   0.62175   0.00000
C          C       0.62175   0.49736   0.00000
C          C       0.50264   0.12439   0.00000
C          C       0.87561   0.37825   0.00000
C          C       0.35831   0.64196   0.00000
C          C       0.35804   0.71635   0.00000
C          C       0.28365   0.64169   0.00000
C          C       0.64169   0.35804   0.00000
C          C       0.64196   0.28365   0.00000
C          C       0.71635   0.35831   0.00000
H          H       0.64405   0.51449   0.11113
H          H       0.48551   0.12956   0.11113
H          H       0.87044   0.35595   0.11113
H          H       0.35595   0.48551   0.11113
H          H       0.51449   0.87044   0.11113
H          H       0.12956   0.64405   0.11113
H          H       0.35595   0.48551   0.38887
H          H       0.51449   0.87044   0.38887
H          H       0.12956   0.64405   0.38887
H          H       0.64405   0.51449   0.38887
H          H       0.48551   0.12956   0.38887
H          H       0.87044   0.35595   0.38887
H          H       0.70390   0.40827   0.11125
H          H       0.59173   0.29563   0.11125
H          H       0.70437   0.29610   0.11125
H          H       0.29610   0.59173   0.11125
H          H       0.40827   0.70437   0.11125
H          H       0.29563   0.70390   0.11125
H          H       0.29610   0.59173   0.38874
H          H       0.40827   0.70437   0.38874
H          H       0.29563   0.70390   0.38874
H          H       0.70390   0.40827   0.38874
H          H       0.59173   0.29563   0.38874
H          H       0.70437   0.29610   0.38874
H          H       0.51231   0.60660   0.00000
H          H       0.39340   0.90571   0.00000
H          H       0.09429   0.48769   0.00000
H          H       0.48769   0.39340   0.00000
H          H       0.60660   0.09429   0.00000
H          H       0.90571   0.51231   0.00000
H          H       0.40932   0.45746   0.00000
H          H       0.54254   0.95186   0.00000
H          H       0.04814   0.59068   0.00000
H          H       0.59068   0.54254   0.00000
H          H       0.45746   0.04814   0.00000
H          H       0.95186   0.40932   0.00000
N          N       0.50350   0.52104   0.00000
N          N       0.47896   0.98246   0.00000
N          N       0.01754   0.49650   0.00000
N          N       0.49650   0.47896   0.00000
N          N       0.52104   0.01754   0.00000
N          N       0.98246   0.50350   0.00000
S          S       0.44557   0.64286   0.00000
S          S       0.35714   0.80271   0.00000
S          S       0.19729   0.55443   0.00000
S          S       0.55443   0.35714   0.00000
S          S       0.64286   0.19729   0.00000
S          S       0.80271   0.44557   0.00000
N          N       0.36150   0.56757   0.50000
N          N       0.43243   0.79393   0.50000
N          N       0.20607   0.63850   0.50000
N          N       0.63850   0.43243   0.50000
N          N       0.56757   0.20607   0.50000
N          N       0.79393   0.36150   0.50000
C          C       0.30770   0.61512   0.50000
C          C       0.38488   0.69258   0.50000
C          C       0.30742   0.69230   0.50000
C          C       0.69230   0.38488   0.50000
C          C       0.61512   0.30742   0.50000
C          C       0.69258   0.30770   0.50000
C          C       0.38450   0.61545   0.50000
C          C       0.38455   0.76905   0.50000
C          C       0.23095   0.61550   0.50000
C          C       0.61550   0.38455   0.50000
C          C       0.61545   0.23095   0.50000
C          C       0.76905   0.38450   0.50000
C          C       0.39242   0.55186   0.50000
C          C       0.44814   0.84056   0.50000
C          C       0.15944   0.60758   0.50000
C          C       0.60758   0.44814   0.50000
C          C       0.55186   0.15944   0.50000
C          C       0.84056   0.39242   0.50000
C          C       0.43896   0.58766   0.50000
C          C       0.41234   0.85130   0.50000
C          C       0.14870   0.56104   0.50000
C          C       0.56104   0.41234   0.50000
C          C       0.58766   0.14870   0.50000
C          C       0.85130   0.43896   0.50000
C          C       0.47586   0.57798   0.50000
C          C       0.42202   0.89788   0.50000
C          C       0.10212   0.52414   0.50000
C          C       0.52414   0.42202   0.50000
C          C       0.57798   0.10212   0.50000
C          C       0.89788   0.47586   0.50000
C          C       0.46525   0.53081   0.50000
C          C       0.46919   0.93444   0.50000
C          C       0.06556   0.53475   0.50000
C          C       0.53475   0.46919   0.50000
C          C       0.53081   0.06556   0.50000
C          C       0.93444   0.46525   0.50000
C          C       0.41744   0.49400   0.50000
C          C       0.50600   0.92344   0.50000
C          C       0.07656   0.58256   0.50000
C          C       0.58256   0.50600   0.50000
C          C       0.49400   0.07656   0.50000
C          C       0.92344   0.41744   0.50000
C          C       0.37825   0.50264   0.50000
C          C       0.49736   0.87561   0.50000
C          C       0.12439   0.62175   0.50000
C          C       0.62175   0.49736   0.50000
C          C       0.50264   0.12439   0.50000
C          C       0.87561   0.37825   0.50000
C          C       0.35831   0.64196   0.50000
C          C       0.35804   0.71635   0.50000
C          C       0.28365   0.64169   0.50000
C          C       0.64169   0.35804   0.50000
C          C       0.64196   0.28365   0.50000
C          C       0.71635   0.35831   0.50000
H          H       0.64405   0.51449   0.61113
H          H       0.48551   0.12956   0.61113
H          H       0.87044   0.35595   0.61113
H          H       0.35595   0.48551   0.61113
H          H       0.51449   0.87044   0.61113
H          H       0.12956   0.64405   0.61113
H          H       0.35595   0.48551   0.88887
H          H       0.51449   0.87044   0.88887
H          H       0.12956   0.64405   0.88887
H          H       0.64405   0.51449   0.88887
H          H       0.48551   0.12956   0.88887
H          H       0.87044   0.35595   0.88887
H          H       0.70390   0.40827   0.61125
H          H       0.59173   0.29563   0.61125
H          H       0.70437   0.29610   0.61125
H          H       0.29610   0.59173   0.61125
H          H       0.40827   0.70437   0.61125
H          H       0.29563   0.70390   0.61125
H          H       0.29610   0.59173   0.88875
H          H       0.40827   0.70437   0.88875
H          H       0.29563   0.70390   0.88875
H          H       0.70390   0.40827   0.88875
H          H       0.59173   0.29563   0.88875
H          H       0.70437   0.29610   0.88875
H          H       0.51231   0.60660   0.50000
H          H       0.39340   0.90571   0.50000
H          H       0.09429   0.48769   0.50000
H          H       0.48769   0.39340   0.50000
H          H       0.60660   0.09429   0.50000
H          H       0.90571   0.51231   0.50000
H          H       0.40932   0.45746   0.50000
H          H       0.54254   0.95186   0.50000
H          H       0.04814   0.59068   0.50000
H          H       0.59068   0.54254   0.50000
H          H       0.45746   0.04814   0.50000
H          H       0.95186   0.40932   0.50000
N          N       0.50350   0.52104   0.50000
N          N       0.47896   0.98246   0.50000
N          N       0.01754   0.49650   0.50000
N          N       0.49650   0.47896   0.50000
N          N       0.52104   0.01754   0.50000
N          N       0.98246   0.50350   0.50000
S          S       0.44557   0.64286   0.50000
S          S       0.35714   0.80271   0.50000
S          S       0.19729   0.55443   0.50000
S          S       0.55443   0.35714   0.50000
S          S       0.64286   0.19729   0.50000
S          S       0.80271   0.44557   0.50000
