data_crystal

_cell_length_a    32.29820
_cell_length_b    32.29820
_cell_length_c    6.64528
_cell_angle_alpha 90.00000
_cell_angle_beta  90.00000
_cell_angle_gamma 120.00000

_symmetry_space_group_name_Hall 'P 1'
_symmetry_space_group_name_H-M  'P 1'

loop_
_symmetry_equiv_pos_as_xyz
 'x,y,z'

loop_
_atom_site_label
_atom_site_type_symbol
_atom_site_fract_x
_atom_site_fract_y
_atom_site_fract_z
O          O       0.29483   0.57495   0.00000
O          O       0.42505   0.71988   0.00000
O          O       0.28012   0.70517   0.00000
O          O       0.70517   0.42505   0.00000
O          O       0.57495   0.28012   0.00000
O          O       0.71988   0.29483   0.00000
N          N       0.38017   0.58326   0.00000
N          N       0.41674   0.79691   0.00000
N          N       0.20309   0.61983   0.00000
N          N       0.61983   0.41674   0.00000
N          N       0.58326   0.20309   0.00000
N          N       0.79691   0.38017   0.00000
C          C       0.31233   0.61749   0.00000
C          C       0.38251   0.69484   0.00000
C          C       0.30516   0.68767   0.00000
C          C       0.68767   0.38251   0.00000
C          C       0.61749   0.30516   0.00000
C          C       0.69484   0.31233   0.00000
C          C       0.39329   0.63127   0.00000
C          C       0.36873   0.76202   0.00000
C          C       0.23798   0.60671   0.00000
C          C       0.60671   0.36873   0.00000
C          C       0.63127   0.23798   0.00000
C          C       0.76202   0.39329   0.00000
C          C       0.41422   0.56957   0.00000
C          C       0.43043   0.84465   0.00000
C          C       0.15535   0.58578   0.00000
C          C       0.58578   0.43043   0.00000
C          C       0.56957   0.15535   0.00000
C          C       0.84465   0.41422   0.00000
C          C       0.46313   0.60223   0.00000
C          C       0.39777   0.86090   0.00000
C          C       0.13910   0.53687   0.00000
C          C       0.53687   0.39777   0.00000
C          C       0.60223   0.13910   0.00000
C          C       0.86090   0.46313   0.00000
C          C       0.49411   0.58630   0.00000
C          C       0.41370   0.90781   0.00000
C          C       0.09219   0.50589   0.00000
C          C       0.50589   0.41370   0.00000
C          C       0.58630   0.09219   0.00000
C          C       0.90781   0.49411   0.00000
C          C       0.47672   0.53881   0.00000
C          C       0.46119   0.93791   0.00000
C          C       0.06209   0.52328   0.00000
C          C       0.52328   0.46119   0.00000
C          C       0.53881   0.06209   0.00000
C          C       0.93791   0.47672   0.00000
C          C       0.42866   0.50594   0.00000
C          C       0.49406   0.92272   0.00000
C          C       0.07728   0.57134   0.00000
C          C       0.57134   0.49406   0.00000
C          C       0.50594   0.07728   0.00000
C          C       0.92272   0.42866   0.00000
C          C       0.39748   0.52150   0.00000
C          C       0.47850   0.87598   0.00000
C          C       0.12402   0.60252   0.00000
C          C       0.60252   0.47850   0.00000
C          C       0.52150   0.12402   0.00000
C          C       0.87598   0.39748   0.00000
C          C       0.36387   0.64804   0.00000
C          C       0.35196   0.71583   0.00000
C          C       0.28417   0.63613   0.00000
C          C       0.63613   0.35196   0.00000
C          C       0.64804   0.28417   0.00000
C          C       0.71583   0.36387   0.00000
H          H       0.42983   0.65613   0.00000
H          H       0.34387   0.77370   0.00000
H          H       0.22630   0.57017   0.00000
H          H       0.57017   0.34387   0.00000
H          H       0.65613   0.22630   0.00000
H          H       0.77370   0.42983   0.00000
H          H       0.47967   0.63981   0.00000
H          H       0.36019   0.83986   0.00000
H          H       0.16014   0.52033   0.00000
H          H       0.52033   0.36019   0.00000
H          H       0.63981   0.16014   0.00000
H          H       0.83986   0.47967   0.00000
H          H       0.34629   0.55525   0.00000
H          H       0.44475   0.79104   0.00000
H          H       0.20896   0.65371   0.00000
H          H       0.65371   0.44475   0.00000
H          H       0.55525   0.20896   0.00000
H          H       0.79104   0.34629   0.00000
H          H       0.36023   0.49605   0.00000
H          H       0.50395   0.86418   0.00000
H          H       0.13582   0.63977   0.00000
H          H       0.63977   0.50395   0.00000
H          H       0.49605   0.13582   0.00000
H          H       0.86418   0.36023   0.00000
H          H       0.53163   0.61075   0.00000
H          H       0.38925   0.92088   0.00000
H          H       0.07912   0.46837   0.00000
H          H       0.46837   0.38925   0.00000
H          H       0.61075   0.07912   0.00000
H          H       0.92088   0.53163   0.00000
H          H       0.41499   0.46838   0.00000
H          H       0.53162   0.94661   0.00000
H          H       0.05339   0.58501   0.00000
H          H       0.58501   0.53162   0.00000
H          H       0.46838   0.05339   0.00000
H          H       0.94661   0.41499   0.00000
N          N       0.50876   0.52383   0.00000
N          N       0.47617   0.98493   0.00000
N          N       0.01507   0.49124   0.00000
N          N       0.49124   0.47617   0.00000
N          N       0.52383   0.01507   0.00000
N          N       0.98493   0.50876   0.00000
O          O       0.29483   0.57495   0.50000
O          O       0.42505   0.71988   0.50000
O          O       0.28012   0.70517   0.50000
O          O       0.70517   0.42505   0.50000
O          O       0.57495   0.28012   0.50000
O          O       0.71988   0.29483   0.50000
N          N       0.38017   0.58326   0.50000
N          N       0.41674   0.79691   0.50000
N          N       0.20309   0.61983   0.50000
N          N       0.61983   0.41674   0.50000
N          N       0.58326   0.20309   0.50000
N          N       0.79691   0.38017   0.50000
C          C       0.31233   0.61749   0.50000
C          C       0.38251   0.69484   0.50000
C          C       0.30516   0.68767   0.50000
C          C       0.68767   0.38251   0.50000
C          C       0.61749   0.30516   0.50000
C          C       0.69484   0.31233   0.50000
C          C       0.39329   0.63127   0.50000
C          C       0.36873   0.76202   0.50000
C          C       0.23798   0.60671   0.50000
C          C       0.60671   0.36873   0.50000
C          C       0.63127   0.23798   0.50000
C          C       0.76202   0.39329   0.50000
C          C       0.41422   0.56957   0.50000
C          C       0.43043   0.84465   0.50000
C          C       0.15535   0.58578   0.50000
C          C       0.58578   0.43043   0.50000
C          C       0.56957   0.15535   0.50000
C          C       0.84465   0.41422   0.50000
C          C       0.46313   0.60223   0.50000
C          C       0.39777   0.86090   0.50000
C          C       0.13910   0.53687   0.50000
C          C       0.53687   0.39777   0.50000
C          C       0.60223   0.13910   0.50000
C          C       0.86090   0.46313   0.50000
C          C       0.49411   0.58630   0.50000
C          C       0.41370   0.90781   0.50000
C          C       0.09219   0.50589   0.50000
C          C       0.50589   0.41370   0.50000
C          C       0.58630   0.09219   0.50000
C          C       0.90781   0.49411   0.50000
C          C       0.47672   0.53881   0.50000
C          C       0.46119   0.93791   0.50000
C          C       0.06209   0.52328   0.50000
C          C       0.52328   0.46119   0.50000
C          C       0.53881   0.06209   0.50000
C          C       0.93791   0.47672   0.50000
C          C       0.42866   0.50594   0.50000
C          C       0.49406   0.92272   0.50000
C          C       0.07728   0.57134   0.50000
C          C       0.57134   0.49406   0.50000
C          C       0.50594   0.07728   0.50000
C          C       0.92272   0.42866   0.50000
C          C       0.39748   0.52150   0.50000
C          C       0.47850   0.87598   0.50000
C          C       0.12402   0.60252   0.50000
C          C       0.60252   0.47850   0.50000
C          C       0.52150   0.12402   0.50000
C          C       0.87598   0.39748   0.50000
C          C       0.36387   0.64804   0.50000
C          C       0.35196   0.71583   0.50000
C          C       0.28417   0.63613   0.50000
C          C       0.63613   0.35196   0.50000
C          C       0.64804   0.28417   0.50000
C          C       0.71583   0.36387   0.50000
H          H       0.42983   0.65613   0.50000
H          H       0.34387   0.77370   0.50000
H          H       0.22630   0.57017   0.50000
H          H       0.57017   0.34387   0.50000
H          H       0.65613   0.22630   0.50000
H          H       0.77370   0.42983   0.50000
H          H       0.47967   0.63981   0.50000
H          H       0.36019   0.83986   0.50000
H          H       0.16014   0.52033   0.50000
H          H       0.52033   0.36019   0.50000
H          H       0.63981   0.16014   0.50000
H          H       0.83986   0.47967   0.50000
H          H       0.34629   0.55525   0.50000
H          H       0.44475   0.79104   0.50000
H          H       0.20896   0.65371   0.50000
H          H       0.65371   0.44475   0.50000
H          H       0.55525   0.20896   0.50000
H          H       0.79104   0.34629   0.50000
H          H       0.36023   0.49605   0.50000
H          H       0.50395   0.86418   0.50000
H          H       0.13582   0.63977   0.50000
H          H       0.63977   0.50395   0.50000
H          H       0.49605   0.13582   0.50000
H          H       0.86418   0.36023   0.50000
H          H       0.53163   0.61075   0.50000
H          H       0.38925   0.92088   0.50000
H          H       0.07912   0.46837   0.50000
H          H       0.46837   0.38925   0.50000
H          H       0.61075   0.07912   0.50000
H          H       0.92088   0.53163   0.50000
H          H       0.41499   0.46838   0.50000
H          H       0.53162   0.94661   0.50000
H          H       0.05339   0.58501   0.50000
H          H       0.58501   0.53162   0.50000
H          H       0.46838   0.05339   0.50000
H          H       0.94661   0.41499   0.50000
N          N       0.50876   0.52383   0.50000
N          N       0.47617   0.98493   0.50000
N          N       0.01507   0.49124   0.50000
N          N       0.49124   0.47617   0.50000
N          N       0.52383   0.01507   0.50000
N          N       0.98493   0.50876   0.50000
