data_21192N2_PM
_symmetry_space_group_name_H-M    'P1'
_cell_length_a    56.012000
_cell_length_b    56.012000
_cell_length_c    7.160000
_cell_angle_alpha    90.000000
_cell_angle_beta    90.000000
_cell_angle_gamma    120.000000
_symmetry_Int_Tables_number 1

loop_
_symmetry_equiv_pos_as_xyz
'x,y,z'

loop_
_atom_site_label
_atom_site_type_symbol
_atom_site_fract_x
_atom_site_fract_y
_atom_site_fract_z
C1    C    0.322260    0.636140    0.900000
C2    C    0.363860    0.686120    0.900000
C3    C    0.313880    0.677740    0.900000
C4    C    0.677740    0.363860    0.900000
C5    C    0.636140    0.313880    0.900000
C6    C    0.686120    0.322260    0.900000
C7    C    0.677740    0.363860    0.100000
C8    C    0.636140    0.313880    0.100000
C9    C    0.686120    0.322260    0.100000
C10    C    0.322260    0.636140    0.100000
C11    C    0.363860    0.686120    0.100000
C12    C    0.313880    0.677740    0.100000
N1    N    0.353150    0.656100    0.914360
N2    N    0.343900    0.697050    0.914360
N3    N    0.302950    0.646850    0.914360
N4    N    0.646850    0.343900    0.914360
N5    N    0.656100    0.302950    0.914360
N6    N    0.697050    0.353150    0.914360
N7    N    0.646850    0.343900    0.085640
N8    N    0.656100    0.302950    0.085640
N9    N    0.697050    0.353150    0.085640
N10    N    0.353150    0.656100    0.085640
N11    N    0.343900    0.697050    0.085640
N12    N    0.302950    0.646850    0.085640
O1    O    0.311440    0.605350    0.889230
O2    O    0.394650    0.706090    0.889230
O3    O    0.293910    0.688560    0.889230
O4    O    0.688560    0.394650    0.889230
O5    O    0.605350    0.293910    0.889230
O6    O    0.706090    0.311440    0.889230
O7    O    0.688560    0.394650    0.110770
O8    O    0.605350    0.293910    0.110770
O9    O    0.706090    0.311440    0.110770
O10    O    0.311440    0.605350    0.110770
O11    O    0.394650    0.706090    0.110770
O12    O    0.293910    0.688560    0.110770
C13    C    0.331290    0.594490    0.892740
C14    C    0.405510    0.736800    0.892740
C15    C    0.263200    0.668710    0.892740
C16    C    0.668710    0.405510    0.892740
C17    C    0.594490    0.263200    0.892740
C18    C    0.736800    0.331290    0.892740
C19    C    0.668710    0.405510    0.107260
C20    C    0.594490    0.263200    0.107260
C21    C    0.736800    0.331290    0.107260
C22    C    0.331290    0.594490    0.107260
C23    C    0.405510    0.736800    0.107260
C24    C    0.263200    0.668710    0.107260
C25    C    0.320460    0.563710    0.881969
C26    C    0.436290    0.756750    0.881969
C27    C    0.243250    0.679540    0.881969
C28    C    0.679540    0.436290    0.881969
C29    C    0.563710    0.243250    0.881969
C30    C    0.756750    0.320460    0.881969
C31    C    0.679540    0.436290    0.118029
C32    C    0.563710    0.243250    0.118029
C33    C    0.756750    0.320460    0.118029
C34    C    0.320460    0.563710    0.118029
C35    C    0.436290    0.756750    0.118029
C36    C    0.243250    0.679540    0.118029
C37    C    0.340520    0.552880    0.885560
C38    C    0.447120    0.787640    0.885560
C39    C    0.212360    0.659480    0.885560
C40    C    0.659480    0.447120    0.885560
C41    C    0.552880    0.212360    0.885560
C42    C    0.787640    0.340520    0.885560
C43    C    0.659480    0.447120    0.114440
C44    C    0.552880    0.212360    0.114440
C45    C    0.787640    0.340520    0.114440
C46    C    0.340520    0.552880    0.114440
C47    C    0.447120    0.787640    0.114440
C48    C    0.212360    0.659480    0.114440
C49    C    0.371410    0.572850    0.899920
C50    C    0.427150    0.798560    0.899920
C51    C    0.201440    0.628590    0.899920
C52    C    0.628590    0.427150    0.899920
C53    C    0.572850    0.201440    0.899920
C54    C    0.798560    0.371410    0.899920
C55    C    0.628590    0.427150    0.100080
C56    C    0.572850    0.201440    0.100080
C57    C    0.798560    0.371410    0.100080
C58    C    0.371410    0.572850    0.100080
C59    C    0.427150    0.798560    0.100080
C60    C    0.201440    0.628590    0.100080
C61    C    0.382230    0.603630    0.910690
C62    C    0.396370    0.778600    0.910690
C63    C    0.221400    0.617770    0.910690
C64    C    0.617770    0.396370    0.910690
C65    C    0.603630    0.221400    0.910690
C66    C    0.778600    0.382230    0.910690
C67    C    0.617770    0.396370    0.089310
C68    C    0.603630    0.221400    0.089310
C69    C    0.778600    0.382230    0.089310
C70    C    0.382230    0.603630    0.089310
C71    C    0.396370    0.778600    0.089310
C72    C    0.221400    0.617770    0.089310
C73    C    0.362250    0.614680    0.907180
C74    C    0.385320    0.747570    0.907180
C75    C    0.252430    0.637750    0.907180
C76    C    0.637750    0.385320    0.907180
C77    C    0.614680    0.252430    0.907180
C78    C    0.747570    0.362250    0.907180
C79    C    0.637750    0.385320    0.092820
C80    C    0.614680    0.252430    0.092820
C81    C    0.747570    0.362250    0.092820
C82    C    0.362250    0.614680    0.092820
C83    C    0.385320    0.747570    0.092820
C84    C    0.252430    0.637750    0.092820
C85    C    0.391250    0.561980    0.903430
C86    C    0.438020    0.829270    0.903430
C87    C    0.170730    0.608750    0.903430
C88    C    0.608750    0.438020    0.903430
C89    C    0.561980    0.170730    0.903430
C90    C    0.829270    0.391250    0.903430
C91    C    0.608750    0.438020    0.096570
C92    C    0.561980    0.170730    0.096570
C93    C    0.829270    0.391250    0.096570
C94    C    0.391250    0.561980    0.096570
C95    C    0.438020    0.829270    0.096570
C96    C    0.170730    0.608750    0.096570
N13    N    0.421920    0.581910    0.917709
N14    N    0.418090    0.840010    0.917709
N15    N    0.159990    0.578080    0.917709
N16    N    0.578080    0.418090    0.917709
N17    N    0.581910    0.159990    0.917709
N18    N    0.840010    0.421920    0.917709
N19    N    0.578080    0.418090    0.082291
N20    N    0.581910    0.159990    0.082291
N21    N    0.840010    0.421920    0.082291
N22    N    0.421920    0.581910    0.082291
N23    N    0.418090    0.840010    0.082291
N24    N    0.159990    0.578080    0.082291
C97    C    0.441980    0.571090    0.921300
C98    C    0.428910    0.870890    0.921300
C99    C    0.129110    0.558020    0.921300
C100    C    0.558020    0.428910    0.921300
C101    C    0.571090    0.129110    0.921300
C102    C    0.870890    0.441980    0.921300
C103    C    0.558020    0.428910    0.078700
C104    C    0.571090    0.129110    0.078700
C105    C    0.870890    0.441980    0.078700
C106    C    0.441980    0.571090    0.078700
C107    C    0.428910    0.870890    0.078700
C108    C    0.129110    0.558020    0.078700
C109    C    0.431160    0.540300    0.910529
C110    C    0.459700    0.890860    0.910529
C111    C    0.109140    0.568840    0.910529
C112    C    0.568840    0.459700    0.910529
C113    C    0.540300    0.109140    0.910529
C114    C    0.890860    0.431160    0.910529
C115    C    0.568840    0.459700    0.089471
C116    C    0.540300    0.109140    0.089471
C117    C    0.890860    0.431160    0.089471
C118    C    0.431160    0.540300    0.089471
C119    C    0.459700    0.890860    0.089471
C120    C    0.109140    0.568840    0.089471
C121    C    0.451010    0.529440    0.914041
C122    C    0.470560    0.921570    0.914041
C123    C    0.078430    0.548990    0.914041
C124    C    0.548990    0.470560    0.914041
C125    C    0.529440    0.078430    0.914041
C126    C    0.921570    0.451010    0.914041
C127    C    0.548990    0.470560    0.085959
C128    C    0.529440    0.078430    0.085959
C129    C    0.921570    0.451010    0.085959
C130    C    0.451010    0.529440    0.085959
C131    C    0.470560    0.921570    0.085959
C132    C    0.078430    0.548990    0.085959
C133    C    0.481890    0.549400    0.928399
C134    C    0.450600    0.932490    0.928399
C135    C    0.067510    0.518110    0.928399
C136    C    0.518110    0.450600    0.928399
C137    C    0.549400    0.067510    0.928399
C138    C    0.932490    0.481890    0.928399
C139    C    0.518110    0.450600    0.071601
C140    C    0.549400    0.067510    0.071601
C141    C    0.932490    0.481890    0.071601
C142    C    0.481890    0.549400    0.071601
C143    C    0.450600    0.932490    0.071601
C144    C    0.067510    0.518110    0.071601
C145    C    0.492710    0.580190    0.939170
C146    C    0.419810    0.912520    0.939170
C147    C    0.087480    0.507290    0.939170
C148    C    0.507290    0.419810    0.939170
C149    C    0.580190    0.087480    0.939170
C150    C    0.912520    0.492710    0.939170
C151    C    0.507290    0.419810    0.060830
C152    C    0.580190    0.087480    0.060830
C153    C    0.912520    0.492710    0.060830
C154    C    0.492710    0.580190    0.060830
C155    C    0.419810    0.912520    0.060830
C156    C    0.087480    0.507290    0.060830
C157    C    0.472650    0.591010    0.935580
C158    C    0.408990    0.881640    0.935580
C159    C    0.118360    0.527350    0.935580
C160    C    0.527350    0.408990    0.935580
C161    C    0.591010    0.118360    0.935580
C162    C    0.881640    0.472650    0.935580
C163    C    0.527350    0.408990    0.064420
C164    C    0.591010    0.118360    0.064420
C165    C    0.881640    0.472650    0.064420
C166    C    0.472650    0.591010    0.064420
C167    C    0.408990    0.881640    0.064420
C168    C    0.118360    0.527350    0.064420
C169    C    0.501740    0.538540    0.931909
C170    C    0.461460    0.963200    0.931909
C171    C    0.036800    0.498260    0.931909
C172    C    0.498260    0.461460    0.931909
C173    C    0.538540    0.036800    0.931909
C174    C    0.963200    0.501740    0.931909
C175    C    0.498260    0.461460    0.068089
C176    C    0.538540    0.036800    0.068089
C177    C    0.963200    0.501740    0.068089
C178    C    0.501740    0.538540    0.068089
C179    C    0.461460    0.963200    0.068089
C180    C    0.036800    0.498260    0.068089
O13    O    0.532620    0.558500    0.946270
O14    O    0.441500    0.974120    0.946270
O15    O    0.025880    0.467380    0.946270
O16    O    0.467380    0.441500    0.946270
O17    O    0.558500    0.025880    0.946270
O18    O    0.974120    0.532620    0.946270
O19    O    0.467380    0.441500    0.053730
O20    O    0.558500    0.025880    0.053730
O21    O    0.974120    0.532620    0.053730
O22    O    0.532620    0.558500    0.053730
O23    O    0.441500    0.974120    0.053730
O24    O    0.025880    0.467380    0.053730
N25    N    0.490910    0.507760    0.921140
N26    N    0.492240    0.983150    0.921140
N27    N    0.016850    0.509090    0.921140
N28    N    0.509090    0.492240    0.921140
N29    N    0.507760    0.016850    0.921140
N30    N    0.983150    0.490910    0.921140
N31    N    0.509090    0.492240    0.078860
N32    N    0.507760    0.016850    0.078860
N33    N    0.983150    0.490910    0.078860
N34    N    0.490910    0.507760    0.078860
N35    N    0.492240    0.983150    0.078860
N36    N    0.016850    0.509090    0.078860
H1    H    0.466150    0.491710    0.911130
H2    H    0.508290    0.974440    0.911130
H3    H    0.025560    0.533850    0.911130
H4    H    0.533850    0.508290    0.911130
H5    H    0.491710    0.025560    0.911130
H6    H    0.974440    0.466150    0.911130
H7    H    0.533850    0.508290    0.088870
H8    H    0.491710    0.025560    0.088870
H9    H    0.974440    0.466150    0.088870
H10    H    0.466150    0.491710    0.088870
H11    H    0.508290    0.974440    0.088870
H12    H    0.025560    0.533850    0.088870
H13    H    0.295040    0.547230    0.870140
H14    H    0.452770    0.747810    0.870140
H15    H    0.252190    0.704960    0.870140
H16    H    0.704960    0.452770    0.870140
H17    H    0.547230    0.252190    0.870140
H18    H    0.747810    0.295040    0.870140
H19    H    0.704960    0.452770    0.129860
H20    H    0.547230    0.252190    0.129860
H21    H    0.747810    0.295040    0.129860
H22    H    0.295040    0.547230    0.129860
H23    H    0.452770    0.747810    0.129860
H24    H    0.252190    0.704960    0.129860
H25    H    0.331620    0.527460    0.876670
H26    H    0.472540    0.804160    0.876670
H27    H    0.195840    0.668380    0.876670
H28    H    0.668380    0.472540    0.876670
H29    H    0.527460    0.195840    0.876670
H30    H    0.804160    0.331620    0.876670
H31    H    0.668380    0.472540    0.123330
H32    H    0.527460    0.195840    0.123330
H33    H    0.804160    0.331620    0.123330
H34    H    0.331620    0.527460    0.123330
H35    H    0.472540    0.804160    0.123330
H36    H    0.195840    0.668380    0.123330
H37    H    0.407660    0.620110    0.922520
H38    H    0.379890    0.787550    0.922520
H39    H    0.212450    0.592340    0.922520
H40    H    0.592340    0.379890    0.922520
H41    H    0.620110    0.212450    0.922520
H42    H    0.787550    0.407660    0.922520
H43    H    0.592340    0.379890    0.077480
H44    H    0.620110    0.212450    0.077480
H45    H    0.787550    0.407660    0.077480
H46    H    0.407660    0.620110    0.077480
H47    H    0.379890    0.787550    0.077480
H48    H    0.212450    0.592340    0.077480
H49    H    0.371300    0.640130    0.916120
H50    H    0.359870    0.731170    0.916120
H51    H    0.268830    0.628700    0.916120
H52    H    0.628700    0.359870    0.916120
H53    H    0.640130    0.268830    0.916120
H54    H    0.731170    0.371300    0.916120
H55    H    0.628700    0.359870    0.083880
H56    H    0.640130    0.268830    0.083880
H57    H    0.731170    0.371300    0.083880
H58    H    0.371300    0.640130    0.083880
H59    H    0.359870    0.731170    0.083880
H60    H    0.268830    0.628700    0.083880
H61    H    0.386670    0.546940    0.172330
H62    H    0.453060    0.839730    0.172330
H63    H    0.160270    0.613330    0.172330
H64    H    0.613330    0.453060    0.172330
H65    H    0.546940    0.160270    0.172330
H66    H    0.839730    0.386670    0.172330
H67    H    0.613330    0.453060    0.827670
H68    H    0.546940    0.160270    0.827670
H69    H    0.839730    0.386670    0.827670
H70    H    0.386670    0.546940    0.827670
H71    H    0.453060    0.839730    0.827670
H72    H    0.160270    0.613330    0.827670
H73    H    0.430590    0.606660    0.926360
H74    H    0.393340    0.823930    0.926360
H75    H    0.176070    0.569410    0.926360
H76    H    0.569410    0.393340    0.926360
H77    H    0.606660    0.176070    0.926360
H78    H    0.823930    0.430590    0.926360
H79    H    0.569410    0.393340    0.073640
H80    H    0.606660    0.176070    0.073640
H81    H    0.823930    0.430590    0.073640
H82    H    0.430590    0.606660    0.073640
H83    H    0.393340    0.823930    0.073640
H84    H    0.176070    0.569410    0.073640
H85    H    0.405730    0.523830    0.898700
H86    H    0.476170    0.881900    0.898700
H87    H    0.118100    0.594270    0.898700
H88    H    0.594270    0.476170    0.898700
H89    H    0.523830    0.118100    0.898700
H90    H    0.881900    0.405730    0.898700
H91    H    0.594270    0.476170    0.101300
H92    H    0.523830    0.118100    0.101300
H93    H    0.881900    0.405730    0.101300
H94    H    0.405730    0.523830    0.101300
H95    H    0.476170    0.881900    0.101300
H96    H    0.118100    0.594270    0.101300
H97    H    0.442020    0.504000    0.905120
H98    H    0.496000    0.938020    0.905120
H99    H    0.061980    0.557980    0.905120
H100    H    0.557980    0.496000    0.905120
H101    H    0.504000    0.061980    0.905120
H102    H    0.938020    0.442020    0.905120
H103    H    0.557980    0.496000    0.094880
H104    H    0.504000    0.061980    0.094880
H105    H    0.938020    0.442020    0.094880
H106    H    0.442020    0.504000    0.094880
H107    H    0.496000    0.938020    0.094880
H108    H    0.061980    0.557980    0.094880
H109    H    0.518140    0.596660    0.951000
H110    H    0.403340    0.921480    0.951000
H111    H    0.078520    0.481860    0.951000
H112    H    0.481860    0.403340    0.951000
H113    H    0.596660    0.078520    0.951000
H114    H    0.921480    0.518140    0.951000
H115    H    0.481860    0.403340    0.049000
H116    H    0.596660    0.078520    0.049000
H117    H    0.921480    0.518140    0.049000
H118    H    0.518140    0.596660    0.049000
H119    H    0.403340    0.921480    0.049000
H120    H    0.078520    0.481860    0.049000
H121    H    0.481550    0.616430    0.944469
H122    H    0.383570    0.865120    0.944469
H123    H    0.134880    0.518450    0.944469
H124    H    0.518450    0.383570    0.944469
H125    H    0.616430    0.134880    0.944469
H126    H    0.865120    0.481550    0.944469
H127    H    0.518450    0.383570    0.055529
H128    H    0.616430    0.134880    0.055529
H129    H    0.865120    0.481550    0.055529
H130    H    0.481550    0.616430    0.055529
H131    H    0.383570    0.865120    0.055529
H132    H    0.134880    0.518450    0.055529
