data_crystal

_cell_length_a    55.25400
_cell_length_b    55.25400
_cell_length_c    6.24000
_cell_angle_alpha 90.00000
_cell_angle_beta  90.00000
_cell_angle_gamma 120.00000

_space_group_name_Hall 'P 1'
_space_group_name_H-M_alt  'P 1'

loop_
_symmetry_equiv_pos_as_xyz
 'x,y,z'

loop_
_atom_site_label
_atom_site_type_symbol
_atom_site_fract_x
_atom_site_fract_y
_atom_site_fract_z
C          C       0.54688   0.50804   0.49979
C          C       0.49196   0.03884   0.49979
C          C       0.96116   0.45312   0.49979
C          C       0.51780   0.51446   0.49979
C          C       0.48554   0.00334   0.49979
C          C       0.99666   0.48220   0.49979
C          C       0.48225   0.48531   0.49979
C          C       0.51469   0.99694   0.49979
C          C       0.00306   0.51775   0.49979
C          C       0.47579   0.44975   0.49979
C          C       0.55025   0.02604   0.49979
C          C       0.97396   0.52421   0.49979
C          C       0.50488   0.44332   0.49978
C          C       0.55668   0.06156   0.49978
C          C       0.93844   0.49512   0.49978
C          C       0.54064   0.47242   0.49978
C          C       0.52758   0.06822   0.49978
C          C       0.93178   0.45936   0.49978
N          N       0.56972   0.46600   0.49978
N          N       0.53400   0.10372   0.49978
N          N       0.89628   0.43028   0.49978
C          C       0.45317   0.49173   0.49980
C          C       0.50827   0.96144   0.49980
C          C       0.03856   0.54683   0.49980
N          N       0.45941   0.52735   0.49980
N          N       0.47265   0.93206   0.49980
N          N       0.06794   0.54059   0.49980
N          N       0.43033   0.53377   0.49981
N          N       0.46623   0.89656   0.49981
N          N       0.10344   0.56967   0.49981
C          C       0.43679   0.56934   0.49982
C          C       0.43066   0.86745   0.49982
C          C       0.13255   0.56321   0.49982
C          C       0.56326   0.43043   0.49977
C          C       0.56957   0.13283   0.49977
C          C       0.86717   0.43674   0.49977
C          C       0.59235   0.42401   0.49977
C          C       0.57599   0.16834   0.49977
C          C       0.83166   0.40765   0.49977
C          C       0.58610   0.38840   0.49976
C          C       0.61160   0.19770   0.49976
C          C       0.80230   0.41390   0.49976
C          C       0.61518   0.38198   0.49976
C          C       0.61802   0.23320   0.49976
C          C       0.76680   0.38482   0.49976
C          C       0.65073   0.41112   0.49976
C          C       0.58888   0.23961   0.49976
C          C       0.76039   0.34927   0.49976
C          C       0.65719   0.44669   0.49976
C          C       0.55331   0.21050   0.49976
C          C       0.78950   0.34281   0.49976
C          C       0.62811   0.45311   0.49977
C          C       0.54689   0.17500   0.49977
C          C       0.82500   0.37189   0.49977
C          C       0.40770   0.57576   0.49982
C          C       0.42424   0.83194   0.49982
C          C       0.16806   0.59230   0.49982
O          O       0.67982   0.40470   0.49975
O          O       0.59530   0.27512   0.49975
O          O       0.72488   0.32018   0.49975
C          C       0.67357   0.36909   0.49975
C          C       0.63091   0.30448   0.49975
C          C       0.69552   0.32643   0.49975
N          N       0.63781   0.33999   0.49975
N          N       0.66001   0.29782   0.49975
N          N       0.70218   0.36219   0.49975
C          C       0.41413   0.61165   0.49983
C          C       0.38835   0.80248   0.49983
C          C       0.19752   0.58587   0.49983
C          C       0.38504   0.61807   0.49983
C          C       0.38193   0.76697   0.49983
C          C       0.23303   0.61496   0.49983
C          C       0.34932   0.58865   0.49983
C          C       0.41135   0.76067   0.49983
C          C       0.23933   0.65068   0.49983
C          C       0.34286   0.55308   0.49983
C          C       0.44692   0.78978   0.49983
C          C       0.21022   0.65714   0.49983
C          C       0.37195   0.54666   0.49982
C          C       0.45334   0.82529   0.49982
C          C       0.17471   0.62805   0.49982
O          O       0.32024   0.59507   0.49983
O          O       0.40493   0.72517   0.49983
O          O       0.27483   0.67976   0.49983
C          C       0.32666   0.63096   0.49984
C          C       0.36904   0.69570   0.49984
C          C       0.30430   0.67334   0.49984
N          N       0.36242   0.66006   0.49984
N          N       0.33994   0.70236   0.49984
N          N       0.29764   0.63758   0.49984
O          O       0.41741   0.46264   0.49980
O          O       0.53736   0.95477   0.49980
O          O       0.04523   0.58259   0.49980
H          H       0.57665   0.53242   0.49979
H          H       0.46758   0.04423   0.49979
H          H       0.95577   0.42335   0.49979
H          H       0.52318   0.54422   0.49980
H          H       0.45578   0.97896   0.49980
H          H       0.02104   0.47682   0.49980
H          H       0.44602   0.42538   0.49979
H          H       0.57462   0.02064   0.49979
H          H       0.97936   0.55398   0.49979
H          H       0.49949   0.41356   0.49978
H          H       0.58644   0.08593   0.49978
H          H       0.91407   0.50051   0.49978
H          H       0.48833   0.55120   0.49980
H          H       0.44880   0.93713   0.49980
H          H       0.06287   0.51167   0.49980
H          H       0.46656   0.59370   0.49982
H          H       0.40630   0.87286   0.49982
H          H       0.12714   0.53344   0.49982
H          H       0.53349   0.40607   0.49977
H          H       0.59393   0.12742   0.49977
H          H       0.87258   0.46651   0.49977
H          H       0.55640   0.36391   0.49977
H          H       0.63609   0.19249   0.49977
H          H       0.80751   0.44360   0.49977
H          H       0.60980   0.35221   0.49976
H          H       0.64779   0.25759   0.49976
H          H       0.74241   0.39020   0.49976
H          H       0.68696   0.47105   0.49976
H          H       0.52895   0.21591   0.49976
H          H       0.78409   0.31304   0.49976
H          H       0.63349   0.48287   0.49977
H          H       0.51713   0.15062   0.49977
H          H       0.84938   0.36651   0.49977
H          H       0.44387   0.63606   0.49983
H          H       0.36394   0.80781   0.49983
H          H       0.19219   0.55613   0.49983
H          H       0.39043   0.64783   0.49983
H          H       0.35217   0.74260   0.49983
H          H       0.25740   0.60957   0.49983
H          H       0.31309   0.52872   0.49983
H          H       0.47128   0.78437   0.49983
H          H       0.21563   0.68691   0.49983
H          H       0.36656   0.51690   0.49982
H          H       0.48310   0.84966   0.49982
H          H       0.15034   0.63344   0.49982
C          C       0.54688   0.50804   0.99979
C          C       0.49196   0.03884   0.99979
C          C       0.96116   0.45312   0.99979
C          C       0.51780   0.51446   0.99979
C          C       0.48554   0.00334   0.99979
C          C       0.99666   0.48220   0.99979
C          C       0.48225   0.48531   0.99979
C          C       0.51469   0.99694   0.99979
C          C       0.00306   0.51775   0.99979
C          C       0.47579   0.44975   0.99979
C          C       0.55025   0.02604   0.99979
C          C       0.97396   0.52421   0.99979
C          C       0.50488   0.44332   0.99978
C          C       0.55668   0.06156   0.99978
C          C       0.93844   0.49512   0.99978
C          C       0.54064   0.47242   0.99978
C          C       0.52758   0.06822   0.99978
C          C       0.93178   0.45936   0.99978
N          N       0.56972   0.46600   0.99978
N          N       0.53400   0.10372   0.99978
N          N       0.89628   0.43028   0.99978
C          C       0.45317   0.49173   0.99980
C          C       0.50827   0.96144   0.99980
C          C       0.03856   0.54683   0.99980
N          N       0.45941   0.52735   0.99980
N          N       0.47265   0.93206   0.99980
N          N       0.06794   0.54059   0.99980
N          N       0.43033   0.53377   0.99981
N          N       0.46623   0.89656   0.99981
N          N       0.10344   0.56967   0.99981
C          C       0.43679   0.56934   0.99982
C          C       0.43066   0.86745   0.99982
C          C       0.13255   0.56321   0.99982
C          C       0.56326   0.43043   0.99977
C          C       0.56957   0.13283   0.99977
C          C       0.86717   0.43674   0.99977
C          C       0.59235   0.42401   0.99977
C          C       0.57599   0.16834   0.99977
C          C       0.83166   0.40765   0.99977
C          C       0.58610   0.38840   0.99976
C          C       0.61160   0.19770   0.99976
C          C       0.80230   0.41390   0.99976
C          C       0.61518   0.38198   0.99976
C          C       0.61802   0.23320   0.99976
C          C       0.76680   0.38482   0.99976
C          C       0.65073   0.41112   0.99976
C          C       0.58888   0.23961   0.99976
C          C       0.76039   0.34927   0.99976
C          C       0.65719   0.44669   0.99976
C          C       0.55331   0.21050   0.99976
C          C       0.78950   0.34281   0.99976
C          C       0.62811   0.45311   0.99977
C          C       0.54689   0.17500   0.99977
C          C       0.82500   0.37189   0.99977
C          C       0.40770   0.57576   0.99982
C          C       0.42424   0.83194   0.99982
C          C       0.16806   0.59230   0.99982
O          O       0.67982   0.40470   0.99975
O          O       0.59530   0.27512   0.99975
O          O       0.72488   0.32018   0.99975
C          C       0.67357   0.36909   0.99975
C          C       0.63091   0.30448   0.99975
C          C       0.69552   0.32643   0.99975
N          N       0.63781   0.33999   0.99975
N          N       0.66001   0.29782   0.99975
N          N       0.70218   0.36219   0.99975
C          C       0.41413   0.61165   0.99982
C          C       0.38835   0.80248   0.99982
C          C       0.19752   0.58587   0.99982
C          C       0.38504   0.61807   0.99983
C          C       0.38193   0.76697   0.99983
C          C       0.23303   0.61496   0.99983
C          C       0.34932   0.58865   0.99983
C          C       0.41135   0.76067   0.99983
C          C       0.23933   0.65068   0.99983
C          C       0.34286   0.55308   0.99982
C          C       0.44692   0.78978   0.99982
C          C       0.21022   0.65714   0.99982
C          C       0.37195   0.54666   0.99982
C          C       0.45334   0.82529   0.99982
C          C       0.17471   0.62805   0.99982
O          O       0.32024   0.59507   0.99983
O          O       0.40493   0.72517   0.99983
O          O       0.27483   0.67976   0.99983
C          C       0.32666   0.63096   0.99984
C          C       0.36904   0.69570   0.99984
C          C       0.30430   0.67334   0.99984
N          N       0.36242   0.66006   0.99984
N          N       0.33994   0.70236   0.99984
N          N       0.29764   0.63758   0.99984
O          O       0.41741   0.46264   0.99980
O          O       0.53736   0.95477   0.99980
O          O       0.04523   0.58259   0.99980
H          H       0.57665   0.53242   0.99979
H          H       0.46758   0.04423   0.99979
H          H       0.95577   0.42335   0.99979
H          H       0.52318   0.54422   0.99980
H          H       0.45578   0.97896   0.99980
H          H       0.02104   0.47682   0.99980
H          H       0.44602   0.42538   0.99979
H          H       0.57462   0.02064   0.99979
H          H       0.97936   0.55398   0.99979
H          H       0.49949   0.41356   0.99978
H          H       0.58644   0.08593   0.99978
H          H       0.91407   0.50051   0.99978
H          H       0.48833   0.55120   0.99980
H          H       0.44880   0.93713   0.99980
H          H       0.06287   0.51167   0.99980
H          H       0.46656   0.59370   0.99982
H          H       0.40630   0.87286   0.99982
H          H       0.12714   0.53344   0.99982
H          H       0.53349   0.40607   0.99977
H          H       0.59393   0.12742   0.99977
H          H       0.87258   0.46651   0.99977
H          H       0.55640   0.36391   0.99977
H          H       0.63609   0.19249   0.99977
H          H       0.80751   0.44360   0.99977
H          H       0.60980   0.35221   0.99976
H          H       0.64779   0.25759   0.99976
H          H       0.74241   0.39020   0.99976
H          H       0.68696   0.47105   0.99976
H          H       0.52895   0.21591   0.99976
H          H       0.78409   0.31304   0.99976
H          H       0.63349   0.48287   0.99977
H          H       0.51713   0.15062   0.99977
H          H       0.84938   0.36651   0.99977
H          H       0.44387   0.63606   0.99982
H          H       0.36394   0.80781   0.99982
H          H       0.19219   0.55613   0.99982
H          H       0.39043   0.64783   0.99983
H          H       0.35217   0.74260   0.99983
H          H       0.25740   0.60957   0.99983
H          H       0.31309   0.52872   0.99983
H          H       0.47128   0.78437   0.99983
H          H       0.21563   0.68691   0.99983
H          H       0.36656   0.51690   0.99982
H          H       0.48310   0.84966   0.99982
H          H       0.15034   0.63344   0.99982
