data_crystal

_cell_length_a    56.01200
_cell_length_b    56.01200
_cell_length_c    7.16000
_cell_angle_alpha 90.00000
_cell_angle_beta  90.00000
_cell_angle_gamma 120.00000

_symmetry_space_group_name_Hall 'P 1'
_symmetry_space_group_name_H-M  'P 1'

loop_
_symmetry_equiv_pos_as_xyz
 'x,y,z'

loop_
_atom_site_label
_atom_site_type_symbol
_atom_site_fract_x
_atom_site_fract_y
_atom_site_fract_z
C          C       0.32226   0.63614   0.90000
C          C       0.36386   0.68612   0.90000
C          C       0.31388   0.67774   0.90000
C          C       0.67774   0.36386   0.90000
C          C       0.63614   0.31388   0.90000
C          C       0.68612   0.32226   0.90000
C          C       0.67774   0.36386   0.10000
C          C       0.63614   0.31388   0.10000
C          C       0.68612   0.32226   0.10000
C          C       0.32226   0.63614   0.10000
C          C       0.36386   0.68612   0.10000
C          C       0.31388   0.67774   0.10000
N          N       0.35315   0.65610   0.91436
N          N       0.34390   0.69705   0.91436
N          N       0.30295   0.64685   0.91436
N          N       0.64685   0.34390   0.91436
N          N       0.65610   0.30295   0.91436
N          N       0.69705   0.35315   0.91436
N          N       0.64685   0.34390   0.08564
N          N       0.65610   0.30295   0.08564
N          N       0.69705   0.35315   0.08564
N          N       0.35315   0.65610   0.08564
N          N       0.34390   0.69705   0.08564
N          N       0.30295   0.64685   0.08564
O          O       0.31144   0.60535   0.88923
O          O       0.39465   0.70609   0.88923
O          O       0.29391   0.68856   0.88923
O          O       0.68856   0.39465   0.88923
O          O       0.60535   0.29391   0.88923
O          O       0.70609   0.31144   0.88923
O          O       0.68856   0.39465   0.11077
O          O       0.60535   0.29391   0.11077
O          O       0.70609   0.31144   0.11077
O          O       0.31144   0.60535   0.11077
O          O       0.39465   0.70609   0.11077
O          O       0.29391   0.68856   0.11077
C          C       0.33129   0.59449   0.89274
C          C       0.40551   0.73680   0.89274
C          C       0.26320   0.66871   0.89274
C          C       0.66871   0.40551   0.89274
C          C       0.59449   0.26320   0.89274
C          C       0.73680   0.33129   0.89274
C          C       0.66871   0.40551   0.10726
C          C       0.59449   0.26320   0.10726
C          C       0.73680   0.33129   0.10726
C          C       0.33129   0.59449   0.10726
C          C       0.40551   0.73680   0.10726
C          C       0.26320   0.66871   0.10726
C          C       0.32046   0.56371   0.88197
C          C       0.43629   0.75675   0.88197
C          C       0.24325   0.67954   0.88197
C          C       0.67954   0.43629   0.88197
C          C       0.56371   0.24325   0.88197
C          C       0.75675   0.32046   0.88197
C          C       0.67954   0.43629   0.11803
C          C       0.56371   0.24325   0.11803
C          C       0.75675   0.32046   0.11803
C          C       0.32046   0.56371   0.11803
C          C       0.43629   0.75675   0.11803
C          C       0.24325   0.67954   0.11803
C          C       0.34052   0.55288   0.88556
C          C       0.44712   0.78764   0.88556
C          C       0.21236   0.65948   0.88556
C          C       0.65948   0.44712   0.88556
C          C       0.55288   0.21236   0.88556
C          C       0.78764   0.34052   0.88556
C          C       0.65948   0.44712   0.11444
C          C       0.55288   0.21236   0.11444
C          C       0.78764   0.34052   0.11444
C          C       0.34052   0.55288   0.11444
C          C       0.44712   0.78764   0.11444
C          C       0.21236   0.65948   0.11444
C          C       0.37141   0.57285   0.89992
C          C       0.42715   0.79856   0.89992
C          C       0.20144   0.62859   0.89992
C          C       0.62859   0.42715   0.89992
C          C       0.57285   0.20144   0.89992
C          C       0.79856   0.37141   0.89992
C          C       0.62859   0.42715   0.10008
C          C       0.57285   0.20144   0.10008
C          C       0.79856   0.37141   0.10008
C          C       0.37141   0.57285   0.10008
C          C       0.42715   0.79856   0.10008
C          C       0.20144   0.62859   0.10008
C          C       0.38223   0.60363   0.91069
C          C       0.39637   0.77860   0.91069
C          C       0.22140   0.61777   0.91069
C          C       0.61777   0.39637   0.91069
C          C       0.60363   0.22140   0.91069
C          C       0.77860   0.38223   0.91069
C          C       0.61777   0.39637   0.08931
C          C       0.60363   0.22140   0.08931
C          C       0.77860   0.38223   0.08931
C          C       0.38223   0.60363   0.08931
C          C       0.39637   0.77860   0.08931
C          C       0.22140   0.61777   0.08931
C          C       0.36225   0.61468   0.90718
C          C       0.38532   0.74757   0.90718
C          C       0.25243   0.63775   0.90718
C          C       0.63775   0.38532   0.90718
C          C       0.61468   0.25243   0.90718
C          C       0.74757   0.36225   0.90718
C          C       0.63775   0.38532   0.09282
C          C       0.61468   0.25243   0.09282
C          C       0.74757   0.36225   0.09282
C          C       0.36225   0.61468   0.09282
C          C       0.38532   0.74757   0.09282
C          C       0.25243   0.63775   0.09282
C          C       0.39125   0.56198   0.90343
C          C       0.43802   0.82927   0.90343
C          C       0.17073   0.60875   0.90343
C          C       0.60875   0.43802   0.90343
C          C       0.56198   0.17073   0.90343
C          C       0.82927   0.39125   0.90343
C          C       0.60875   0.43802   0.09657
C          C       0.56198   0.17073   0.09657
C          C       0.82927   0.39125   0.09657
C          C       0.39125   0.56198   0.09657
C          C       0.43802   0.82927   0.09657
C          C       0.17073   0.60875   0.09657
N          N       0.42192   0.58191   0.91771
N          N       0.41809   0.84001   0.91771
N          N       0.15999   0.57808   0.91771
N          N       0.57808   0.41809   0.91771
N          N       0.58191   0.15999   0.91771
N          N       0.84001   0.42192   0.91771
N          N       0.57808   0.41809   0.08229
N          N       0.58191   0.15999   0.08229
N          N       0.84001   0.42192   0.08229
N          N       0.42192   0.58191   0.08229
N          N       0.41809   0.84001   0.08229
N          N       0.15999   0.57808   0.08229
C          C       0.44198   0.57109   0.92130
C          C       0.42891   0.87089   0.92130
C          C       0.12911   0.55802   0.92130
C          C       0.55802   0.42891   0.92130
C          C       0.57109   0.12911   0.92130
C          C       0.87089   0.44198   0.92130
C          C       0.55802   0.42891   0.07870
C          C       0.57109   0.12911   0.07870
C          C       0.87089   0.44198   0.07870
C          C       0.44198   0.57109   0.07870
C          C       0.42891   0.87089   0.07870
C          C       0.12911   0.55802   0.07870
C          C       0.43116   0.54030   0.91053
C          C       0.45970   0.89086   0.91053
C          C       0.10914   0.56884   0.91053
C          C       0.56884   0.45970   0.91053
C          C       0.54030   0.10914   0.91053
C          C       0.89086   0.43116   0.91053
C          C       0.56884   0.45970   0.08947
C          C       0.54030   0.10914   0.08947
C          C       0.89086   0.43116   0.08947
C          C       0.43116   0.54030   0.08947
C          C       0.45970   0.89086   0.08947
C          C       0.10914   0.56884   0.08947
C          C       0.45101   0.52944   0.91404
C          C       0.47056   0.92157   0.91404
C          C       0.07843   0.54899   0.91404
C          C       0.54899   0.47056   0.91404
C          C       0.52944   0.07843   0.91404
C          C       0.92157   0.45101   0.91404
C          C       0.54899   0.47056   0.08596
C          C       0.52944   0.07843   0.08596
C          C       0.92157   0.45101   0.08596
C          C       0.45101   0.52944   0.08596
C          C       0.47056   0.92157   0.08596
C          C       0.07843   0.54899   0.08596
C          C       0.48189   0.54940   0.92840
C          C       0.45060   0.93249   0.92840
C          C       0.06751   0.51811   0.92840
C          C       0.51811   0.45060   0.92840
C          C       0.54940   0.06751   0.92840
C          C       0.93249   0.48189   0.92840
C          C       0.51811   0.45060   0.07160
C          C       0.54940   0.06751   0.07160
C          C       0.93249   0.48189   0.07160
C          C       0.48189   0.54940   0.07160
C          C       0.45060   0.93249   0.07160
C          C       0.06751   0.51811   0.07160
C          C       0.49271   0.58019   0.93917
C          C       0.41981   0.91252   0.93917
C          C       0.08748   0.50729   0.93917
C          C       0.50729   0.41981   0.93917
C          C       0.58019   0.08748   0.93917
C          C       0.91252   0.49271   0.93917
C          C       0.50729   0.41981   0.06083
C          C       0.58019   0.08748   0.06083
C          C       0.91252   0.49271   0.06083
C          C       0.49271   0.58019   0.06083
C          C       0.41981   0.91252   0.06083
C          C       0.08748   0.50729   0.06083
C          C       0.47265   0.59101   0.93558
C          C       0.40899   0.88164   0.93558
C          C       0.11836   0.52735   0.93558
C          C       0.52735   0.40899   0.93558
C          C       0.59101   0.11836   0.93558
C          C       0.88164   0.47265   0.93558
C          C       0.52735   0.40899   0.06442
C          C       0.59101   0.11836   0.06442
C          C       0.88164   0.47265   0.06442
C          C       0.47265   0.59101   0.06442
C          C       0.40899   0.88164   0.06442
C          C       0.11836   0.52735   0.06442
C          C       0.50174   0.53854   0.93191
C          C       0.46146   0.96320   0.93191
C          C       0.03680   0.49826   0.93191
C          C       0.49826   0.46146   0.93191
C          C       0.53854   0.03680   0.93191
C          C       0.96320   0.50174   0.93191
C          C       0.49826   0.46146   0.06809
C          C       0.53854   0.03680   0.06809
C          C       0.96320   0.50174   0.06809
C          C       0.50174   0.53854   0.06809
C          C       0.46146   0.96320   0.06809
C          C       0.03680   0.49826   0.06809
O          O       0.53262   0.55850   0.94627
O          O       0.44150   0.97412   0.94627
O          O       0.02588   0.46738   0.94627
O          O       0.46738   0.44150   0.94627
O          O       0.55850   0.02588   0.94627
O          O       0.97412   0.53262   0.94627
O          O       0.46738   0.44150   0.05373
O          O       0.55850   0.02588   0.05373
O          O       0.97412   0.53262   0.05373
O          O       0.53262   0.55850   0.05373
O          O       0.44150   0.97412   0.05373
O          O       0.02588   0.46738   0.05373
N          N       0.49091   0.50776   0.92114
N          N       0.49224   0.98315   0.92114
N          N       0.01685   0.50909   0.92114
N          N       0.50909   0.49224   0.92114
N          N       0.50776   0.01685   0.92114
N          N       0.98315   0.49091   0.92114
N          N       0.50909   0.49224   0.07886
N          N       0.50776   0.01685   0.07886
N          N       0.98315   0.49091   0.07886
N          N       0.49091   0.50776   0.07886
N          N       0.49224   0.98315   0.07886
N          N       0.01685   0.50909   0.07886
H          H       0.46615   0.49171   0.91113
H          H       0.50829   0.97444   0.91113
H          H       0.02556   0.53385   0.91113
H          H       0.53385   0.50829   0.91113
H          H       0.49171   0.02556   0.91113
H          H       0.97444   0.46615   0.91113
H          H       0.53385   0.50829   0.08887
H          H       0.49171   0.02556   0.08887
H          H       0.97444   0.46615   0.08887
H          H       0.46615   0.49171   0.08887
H          H       0.50829   0.97444   0.08887
H          H       0.02556   0.53385   0.08887
H          H       0.29504   0.54723   0.87014
H          H       0.45277   0.74781   0.87014
H          H       0.25219   0.70496   0.87014
H          H       0.70496   0.45277   0.87014
H          H       0.54723   0.25219   0.87014
H          H       0.74781   0.29504   0.87014
H          H       0.70496   0.45277   0.12986
H          H       0.54723   0.25219   0.12986
H          H       0.74781   0.29504   0.12986
H          H       0.29504   0.54723   0.12986
H          H       0.45277   0.74781   0.12986
H          H       0.25219   0.70496   0.12986
H          H       0.33162   0.52746   0.87667
H          H       0.47254   0.80416   0.87667
H          H       0.19584   0.66838   0.87667
H          H       0.66838   0.47254   0.87667
H          H       0.52746   0.19584   0.87667
H          H       0.80416   0.33162   0.87667
H          H       0.66838   0.47254   0.12333
H          H       0.52746   0.19584   0.12333
H          H       0.80416   0.33162   0.12333
H          H       0.33162   0.52746   0.12333
H          H       0.47254   0.80416   0.12333
H          H       0.19584   0.66838   0.12333
H          H       0.40766   0.62011   0.92252
H          H       0.37989   0.78755   0.92252
H          H       0.21245   0.59234   0.92252
H          H       0.59234   0.37989   0.92252
H          H       0.62011   0.21245   0.92252
H          H       0.78755   0.40766   0.92252
H          H       0.59234   0.37989   0.07748
H          H       0.62011   0.21245   0.07748
H          H       0.78755   0.40766   0.07748
H          H       0.40766   0.62011   0.07748
H          H       0.37989   0.78755   0.07748
H          H       0.21245   0.59234   0.07748
H          H       0.37130   0.64013   0.91612
H          H       0.35987   0.73117   0.91612
H          H       0.26883   0.62870   0.91612
H          H       0.62870   0.35987   0.91612
H          H       0.64013   0.26883   0.91612
H          H       0.73117   0.37130   0.91612
H          H       0.62870   0.35987   0.08388
H          H       0.64013   0.26883   0.08388
H          H       0.73117   0.37130   0.08388
H          H       0.37130   0.64013   0.08388
H          H       0.35987   0.73117   0.08388
H          H       0.26883   0.62870   0.08388
H          H       0.38653   0.54724   0.63108
H          H       0.45276   0.83929   0.63108
H          H       0.16071   0.61347   0.63108
H          H       0.61347   0.45276   0.63108
H          H       0.54724   0.16071   0.63108
H          H       0.83929   0.38653   0.63108
H          H       0.61347   0.45276   0.36892
H          H       0.54724   0.16071   0.36892
H          H       0.83929   0.38653   0.36892
H          H       0.38653   0.54724   0.36892
H          H       0.45276   0.83929   0.36892
H          H       0.16071   0.61347   0.36892
H          H       0.38667   0.54694   0.17233
H          H       0.45306   0.83973   0.17233
H          H       0.16027   0.61333   0.17233
H          H       0.61333   0.45306   0.17233
H          H       0.54694   0.16027   0.17233
H          H       0.83973   0.38667   0.17233
H          H       0.61333   0.45306   0.82767
H          H       0.54694   0.16027   0.82767
H          H       0.83973   0.38667   0.82767
H          H       0.38667   0.54694   0.82767
H          H       0.45306   0.83973   0.82767
H          H       0.16027   0.61333   0.82767
H          H       0.43059   0.60666   0.92636
H          H       0.39334   0.82393   0.92636
H          H       0.17607   0.56941   0.92636
H          H       0.56941   0.39334   0.92636
H          H       0.60666   0.17607   0.92636
H          H       0.82393   0.43059   0.92636
H          H       0.56941   0.39334   0.07364
H          H       0.60666   0.17607   0.07364
H          H       0.82393   0.43059   0.07364
H          H       0.43059   0.60666   0.07364
H          H       0.39334   0.82393   0.07364
H          H       0.17607   0.56941   0.07364
H          H       0.40573   0.52383   0.89870
H          H       0.47617   0.88190   0.89870
H          H       0.11810   0.59427   0.89870
H          H       0.59427   0.47617   0.89870
H          H       0.52383   0.11810   0.89870
H          H       0.88190   0.40573   0.89870
H          H       0.59427   0.47617   0.10130
H          H       0.52383   0.11810   0.10130
H          H       0.88190   0.40573   0.10130
H          H       0.40573   0.52383   0.10130
H          H       0.47617   0.88190   0.10130
H          H       0.11810   0.59427   0.10130
H          H       0.44202   0.50400   0.90512
H          H       0.49600   0.93802   0.90512
H          H       0.06198   0.55798   0.90512
H          H       0.55798   0.49600   0.90512
H          H       0.50400   0.06198   0.90512
H          H       0.93802   0.44202   0.90512
H          H       0.55798   0.49600   0.09488
H          H       0.50400   0.06198   0.09488
H          H       0.93802   0.44202   0.09488
H          H       0.44202   0.50400   0.09488
H          H       0.49600   0.93802   0.09488
H          H       0.06198   0.55798   0.09488
H          H       0.51814   0.59666   0.95100
H          H       0.40334   0.92148   0.95100
H          H       0.07852   0.48186   0.95100
H          H       0.48186   0.40334   0.95100
H          H       0.59666   0.07852   0.95100
H          H       0.92148   0.51814   0.95100
H          H       0.48186   0.40334   0.04900
H          H       0.59666   0.07852   0.04900
H          H       0.92148   0.51814   0.04900
H          H       0.51814   0.59666   0.04900
H          H       0.40334   0.92148   0.04900
H          H       0.07852   0.48186   0.04900
H          H       0.48155   0.61643   0.94447
H          H       0.38357   0.86512   0.94447
H          H       0.13488   0.51845   0.94447
H          H       0.51845   0.38357   0.94447
H          H       0.61643   0.13488   0.94447
H          H       0.86512   0.48155   0.94447
H          H       0.51845   0.38357   0.05553
H          H       0.61643   0.13488   0.05553
H          H       0.86512   0.48155   0.05553
H          H       0.48155   0.61643   0.05553
H          H       0.38357   0.86512   0.05553
H          H       0.13488   0.51845   0.05553
