data_crystal

_cell_length_a    48.23000
_cell_length_b    48.23000
_cell_length_c    6.80200
_cell_angle_alpha 90.00000
_cell_angle_beta  90.00000
_cell_angle_gamma 120.00000

_symmetry_space_group_name_Hall 'P 1'
_symmetry_space_group_name_H-M  'P 1'

loop_
_symmetry_equiv_pos_as_xyz
 'x,y,z'

loop_
_atom_site_label
_atom_site_type_symbol
_atom_site_fract_x
_atom_site_fract_y
_atom_site_fract_z
N          N       0.34064   0.69755   0.50000
N          N       0.30245   0.64309   0.50000
N          N       0.35691   0.65936   0.50000
C          C       0.30949   0.67359   0.50000
C          C       0.32641   0.63590   0.50000
C          C       0.36410   0.69051   0.50000
O          O       0.28557   0.68080   0.50000
O          O       0.31920   0.60477   0.50000
O          O       0.39523   0.71443   0.50000
C          C       0.25442   0.65683   0.50000
C          C       0.34317   0.59759   0.50000
C          C       0.40241   0.74558   0.50000
C          C       0.23033   0.66409   0.50000
C          C       0.33591   0.56624   0.50000
C          C       0.43376   0.76967   0.50000
C          C       0.19917   0.64013   0.50000
C          C       0.35987   0.55904   0.50000
C          C       0.44096   0.80083   0.50000
C          C       0.19193   0.60896   0.50000
C          C       0.39104   0.58297   0.50000
C          C       0.41703   0.80807   0.50000
C          C       0.21602   0.60170   0.50000
C          C       0.39830   0.61432   0.50000
C          C       0.38568   0.78398   0.50000
C          C       0.24717   0.62566   0.50000
C          C       0.37434   0.62151   0.50000
C          C       0.37849   0.75283   0.50000
C          C       0.16077   0.58499   0.50000
C          C       0.41501   0.57578   0.50000
C          C       0.42422   0.83923   0.50000
N          N       0.13686   0.59220   0.50000
N          N       0.40780   0.54466   0.50000
N          N       0.45534   0.86314   0.50000
C          C       0.10570   0.56823   0.50000
C          C       0.43177   0.53747   0.50000
C          C       0.46253   0.89430   0.50000
C          C       0.08161   0.57549   0.50000
C          C       0.42451   0.50612   0.50000
C          C       0.49388   0.91839   0.50000
C          C       0.05046   0.55153   0.50000
C          C       0.44847   0.49893   0.50000
C          C       0.50107   0.94954   0.50000
C          C       0.04322   0.52036   0.50000
C          C       0.47964   0.52286   0.50000
C          C       0.47714   0.95678   0.50000
C          C       0.06730   0.51310   0.50000
C          C       0.48690   0.55420   0.50000
C          C       0.44580   0.93270   0.50000
C          C       0.09846   0.53706   0.50000
C          C       0.46294   0.56140   0.50000
C          C       0.43860   0.90154   0.50000
N          N       0.01190   0.49616   0.50000
N          N       0.50384   0.51574   0.50000
N          N       0.48426   0.98810   0.50000
C          C       0.98798   0.50337   0.50000
C          C       0.49663   0.48461   0.50000
C          C       0.51539   0.01202   0.50000
C          C       0.95683   0.47940   0.50000
C          C       0.52060   0.47743   0.50000
C          C       0.52257   0.04317   0.50000
C          C       0.93291   0.48661   0.50000
C          C       0.51339   0.44630   0.50000
C          C       0.55370   0.06709   0.50000
C          C       0.90158   0.46270   0.50000
C          C       0.53730   0.43888   0.50000
C          C       0.56112   0.09842   0.50000
C          C       0.89451   0.43147   0.50000
C          C       0.56853   0.46304   0.50000
C          C       0.53696   0.10549   0.50000
C          C       0.91843   0.42426   0.50000
C          C       0.57574   0.49417   0.50000
C          C       0.50583   0.08157   0.50000
C          C       0.94958   0.44823   0.50000
C          C       0.55177   0.50135   0.50000
C          C       0.49865   0.05042   0.50000
N          N       0.86318   0.40756   0.50000
N          N       0.59244   0.45562   0.50000
N          N       0.54438   0.13682   0.50000
C          C       0.83927   0.41477   0.50000
C          C       0.58523   0.42450   0.50000
C          C       0.57550   0.16073   0.50000
C          C       0.80811   0.39080   0.50000
C          C       0.60920   0.41731   0.50000
C          C       0.58269   0.19189   0.50000
C          C       0.78420   0.39801   0.50000
C          C       0.60199   0.38619   0.50000
C          C       0.61381   0.21580   0.50000
C          C       0.75287   0.37410   0.50000
C          C       0.62590   0.37877   0.50000
C          C       0.62123   0.24713   0.50000
C          C       0.74580   0.34287   0.50000
C          C       0.65713   0.40293   0.50000
C          C       0.59707   0.25420   0.50000
C          C       0.76971   0.33567   0.50000
C          C       0.66433   0.43404   0.50000
C          C       0.56596   0.23029   0.50000
C          C       0.80087   0.35963   0.50000
C          C       0.64037   0.44124   0.50000
C          C       0.55876   0.19913   0.50000
O          O       0.71447   0.31896   0.50000
O          O       0.68104   0.39551   0.50000
O          O       0.60449   0.28553   0.50000
C          C       0.69056   0.32617   0.50000
C          C       0.67383   0.36439   0.50000
C          C       0.63561   0.30944   0.50000
N          N       0.65940   0.30220   0.50000
N          N       0.69780   0.35720   0.50000
N          N       0.64280   0.34060   0.50000
O          O       0.99539   0.53477   0.50000
O          O       0.46523   0.46062   0.50000
O          O       0.53938   0.00461   0.50000
H          H       0.23637   0.69018   0.50000
H          H       0.30982   0.54619   0.50000
H          H       0.45381   0.76363   0.50000
H          H       0.17911   0.64615   0.50000
H          H       0.35385   0.53296   0.50000
H          H       0.46704   0.82089   0.50000
H          H       0.20998   0.57561   0.50000
H          H       0.42439   0.63437   0.50000
H          H       0.36563   0.79002   0.50000
H          H       0.26723   0.61964   0.50000
H          H       0.38036   0.64759   0.50000
H          H       0.35241   0.73277   0.50000
H          H       0.15475   0.55891   0.50000
H          H       0.44109   0.59584   0.50000
H          H       0.40416   0.84525   0.50000
H          H       0.08766   0.60158   0.50000
H          H       0.39842   0.48608   0.50000
H          H       0.51392   0.91234   0.50000
H          H       0.03040   0.55755   0.50000
H          H       0.44245   0.47285   0.50000
H          H       0.52715   0.96960   0.50000
H          H       0.06126   0.48701   0.50000
H          H       0.51299   0.57425   0.50000
H          H       0.42575   0.93874   0.50000
H          H       0.11852   0.53104   0.50000
H          H       0.46896   0.58748   0.50000
H          H       0.41252   0.88148   0.50000
H          H       0.00613   0.47079   0.50000
H          H       0.52921   0.53534   0.50000
H          H       0.46466   0.99387   0.50000
H          H       0.93896   0.51269   0.50000
H          H       0.48731   0.42627   0.50000
H          H       0.57373   0.06104   0.50000
H          H       0.88164   0.46889   0.50000
H          H       0.53111   0.41275   0.50000
H          H       0.58725   0.11836   0.50000
H          H       0.91239   0.39818   0.50000
H          H       0.60182   0.51421   0.50000
H          H       0.48579   0.08761   0.50000
H          H       0.96964   0.44221   0.50000
H          H       0.55779   0.52743   0.50000
H          H       0.47257   0.03036   0.50000
H          H       0.84531   0.44085   0.50000
H          H       0.55915   0.40446   0.50000
H          H       0.59554   0.15469   0.50000
H          H       0.79024   0.42410   0.50000
H          H       0.57590   0.36614   0.50000
H          H       0.63386   0.20976   0.50000
H          H       0.73293   0.38029   0.50000
H          H       0.61971   0.35264   0.50000
H          H       0.64736   0.26707   0.50000
H          H       0.76367   0.30958   0.50000
H          H       0.69042   0.45409   0.50000
H          H       0.54591   0.23633   0.50000
H          H       0.82093   0.35361   0.50000
H          H       0.64639   0.46732   0.50000
H          H       0.53268   0.17907   0.50000
N          N       0.34064   0.69755   1.00000
N          N       0.30245   0.64309   1.00000
N          N       0.35691   0.65936   1.00000
C          C       0.30949   0.67359   1.00000
C          C       0.32641   0.63590   1.00000
C          C       0.36410   0.69051   1.00000
O          O       0.28557   0.68080   1.00000
O          O       0.31920   0.60477   1.00000
O          O       0.39523   0.71443   1.00000
C          C       0.25442   0.65683   1.00000
C          C       0.34317   0.59759   1.00000
C          C       0.40241   0.74558   1.00000
C          C       0.23033   0.66409   1.00000
C          C       0.33591   0.56624   1.00000
C          C       0.43376   0.76967   1.00000
C          C       0.19917   0.64013   1.00000
C          C       0.35987   0.55904   1.00000
C          C       0.44096   0.80083   1.00000
C          C       0.19193   0.60896   1.00000
C          C       0.39104   0.58297   1.00000
C          C       0.41703   0.80807   1.00000
C          C       0.21602   0.60170   1.00000
C          C       0.39830   0.61432   1.00000
C          C       0.38568   0.78398   1.00000
C          C       0.24717   0.62566   1.00000
C          C       0.37434   0.62151   1.00000
C          C       0.37849   0.75283   1.00000
C          C       0.16077   0.58499   1.00000
C          C       0.41501   0.57578   1.00000
C          C       0.42422   0.83923   1.00000
N          N       0.13686   0.59220   1.00000
N          N       0.40780   0.54466   1.00000
N          N       0.45534   0.86314   1.00000
C          C       0.10570   0.56823   1.00000
C          C       0.43177   0.53747   1.00000
C          C       0.46253   0.89430   1.00000
C          C       0.08161   0.57549   1.00000
C          C       0.42451   0.50612   1.00000
C          C       0.49388   0.91839   1.00000
C          C       0.05046   0.55153   1.00000
C          C       0.44847   0.49893   1.00000
C          C       0.50107   0.94954   1.00000
C          C       0.04322   0.52036   1.00000
C          C       0.47964   0.52286   1.00000
C          C       0.47714   0.95678   1.00000
C          C       0.06730   0.51310   1.00000
C          C       0.48690   0.55420   1.00000
C          C       0.44580   0.93270   1.00000
C          C       0.09846   0.53706   1.00000
C          C       0.46294   0.56140   1.00000
C          C       0.43860   0.90154   1.00000
N          N       0.01190   0.49616   1.00000
N          N       0.50384   0.51574   1.00000
N          N       0.48426   0.98810   1.00000
C          C       0.98798   0.50337   1.00000
C          C       0.49663   0.48461   1.00000
C          C       0.51539   0.01202   1.00000
C          C       0.95683   0.47940   1.00000
C          C       0.52060   0.47743   1.00000
C          C       0.52257   0.04317   1.00000
C          C       0.93291   0.48661   1.00000
C          C       0.51339   0.44630   1.00000
C          C       0.55370   0.06709   1.00000
C          C       0.90158   0.46270   1.00000
C          C       0.53730   0.43888   1.00000
C          C       0.56112   0.09842   1.00000
C          C       0.89451   0.43147   1.00000
C          C       0.56853   0.46304   1.00000
C          C       0.53696   0.10549   1.00000
C          C       0.91843   0.42426   1.00000
C          C       0.57574   0.49417   1.00000
C          C       0.50583   0.08157   1.00000
C          C       0.94958   0.44823   1.00000
C          C       0.55177   0.50135   1.00000
C          C       0.49865   0.05042   1.00000
N          N       0.86318   0.40756   1.00000
N          N       0.59244   0.45562   1.00000
N          N       0.54438   0.13682   1.00000
C          C       0.83927   0.41477   1.00000
C          C       0.58523   0.42450   1.00000
C          C       0.57550   0.16073   1.00000
C          C       0.80811   0.39080   1.00000
C          C       0.60920   0.41731   1.00000
C          C       0.58269   0.19189   1.00000
C          C       0.78420   0.39801   1.00000
C          C       0.60199   0.38619   1.00000
C          C       0.61381   0.21580   1.00000
C          C       0.75287   0.37410   1.00000
C          C       0.62590   0.37877   1.00000
C          C       0.62123   0.24713   1.00000
C          C       0.74580   0.34287   1.00000
C          C       0.65713   0.40293   1.00000
C          C       0.59707   0.25420   1.00000
C          C       0.76971   0.33567   1.00000
C          C       0.66433   0.43404   1.00000
C          C       0.56596   0.23029   1.00000
C          C       0.80087   0.35963   1.00000
C          C       0.64037   0.44124   1.00000
C          C       0.55876   0.19913   1.00000
O          O       0.71447   0.31896   1.00000
O          O       0.68104   0.39551   1.00000
O          O       0.60449   0.28553   1.00000
C          C       0.69056   0.32617   1.00000
C          C       0.67383   0.36439   1.00000
C          C       0.63561   0.30944   1.00000
N          N       0.65940   0.30220   1.00000
N          N       0.69780   0.35720   1.00000
N          N       0.64280   0.34060   1.00000
O          O       0.99539   0.53477   1.00000
O          O       0.46523   0.46062   1.00000
O          O       0.53938   0.00461   1.00000
H          H       0.23637   0.69018   1.00000
H          H       0.30982   0.54619   1.00000
H          H       0.45381   0.76363   1.00000
H          H       0.17911   0.64615   1.00000
H          H       0.35385   0.53296   1.00000
H          H       0.46704   0.82089   1.00000
H          H       0.20998   0.57561   1.00000
H          H       0.42439   0.63437   1.00000
H          H       0.36563   0.79002   1.00000
H          H       0.26723   0.61964   1.00000
H          H       0.38036   0.64759   1.00000
H          H       0.35241   0.73277   1.00000
H          H       0.15475   0.55891   1.00000
H          H       0.44109   0.59584   1.00000
H          H       0.40416   0.84525   1.00000
H          H       0.08766   0.60158   1.00000
H          H       0.39842   0.48608   1.00000
H          H       0.51392   0.91234   1.00000
H          H       0.03040   0.55755   1.00000
H          H       0.44245   0.47285   1.00000
H          H       0.52715   0.96960   1.00000
H          H       0.06126   0.48701   1.00000
H          H       0.51299   0.57425   1.00000
H          H       0.42575   0.93874   1.00000
H          H       0.11852   0.53104   1.00000
H          H       0.46896   0.58748   1.00000
H          H       0.41252   0.88148   1.00000
H          H       0.00613   0.47079   1.00000
H          H       0.52921   0.53534   1.00000
H          H       0.46466   0.99387   1.00000
H          H       0.93896   0.51269   1.00000
H          H       0.48731   0.42627   1.00000
H          H       0.57373   0.06104   1.00000
H          H       0.88164   0.46889   1.00000
H          H       0.53111   0.41275   1.00000
H          H       0.58725   0.11836   1.00000
H          H       0.91239   0.39818   1.00000
H          H       0.60182   0.51421   1.00000
H          H       0.48579   0.08761   1.00000
H          H       0.96964   0.44221   1.00000
H          H       0.55779   0.52743   1.00000
H          H       0.47257   0.03036   1.00000
H          H       0.84531   0.44085   1.00000
H          H       0.55915   0.40446   1.00000
H          H       0.59554   0.15469   1.00000
H          H       0.79024   0.42410   1.00000
H          H       0.57590   0.36614   1.00000
H          H       0.63386   0.20976   1.00000
H          H       0.73293   0.38029   1.00000
H          H       0.61971   0.35264   1.00000
H          H       0.64736   0.26707   1.00000
H          H       0.76367   0.30958   1.00000
H          H       0.69042   0.45409   1.00000
H          H       0.54591   0.23633   1.00000
H          H       0.82093   0.35361   1.00000
H          H       0.64639   0.46732   1.00000
H          H       0.53268   0.17907   1.00000
