data_crystal

_cell_length_a    24.12300
_cell_length_b    24.12300
_cell_length_c    9.32040
_cell_angle_alpha 87.84110
_cell_angle_beta  92.73840
_cell_angle_gamma 97.57330

_symmetry_space_group_name_Hall 'P 1'
_symmetry_space_group_name_H-M  'P 1'

loop_
_symmetry_equiv_pos_as_xyz
 'x,y,z'

loop_
_atom_site_label
_atom_site_type_symbol
_atom_site_fract_x
_atom_site_fract_y
_atom_site_fract_z
C          C       0.81931   0.65923   0.19252
C          C       0.18069   0.34077   0.30748
N          N       0.92304   0.57455   0.29707
N          N       0.07696   0.42545   0.20293
C          C       0.96131   0.53801   0.27199
C          C       0.03869   0.46199   0.22801
C          C       0.96031   0.48784   0.35186
C          C       0.03969   0.51216   0.14814
C          C       0.00200   0.54945   0.16986
C          C       0.99800   0.45055   0.33014
C          C       0.66212   0.21187   0.23631
C          C       0.33788   0.78813   0.26370
N          N       0.59008   0.07980   0.17064
N          N       0.40992   0.92020   0.32936
C          C       0.54556   0.03947   0.21005
C          C       0.45444   0.96053   0.28995
C          C       0.55125   0.00104   0.32345
C          C       0.44875   0.99896   0.17655
C          C       0.49360   0.03765   0.13706
C          C       0.50640   0.96235   0.36294
C          C       0.37521   0.74560   0.27826
C          C       0.62479   0.25440   0.22174
C          C       0.42172   0.74973   0.37678
C          C       0.57828   0.25027   0.12322
C          C       0.36620   0.69861   0.19140
C          C       0.63380   0.30139   0.30860
C          C       0.45775   0.71011   0.38770
C          C       0.54225   0.28989   0.11230
C          C       0.40180   0.65853   0.19891
C          C       0.59820   0.34147   0.30109
C          C       0.44967   0.66257   0.29795
C          C       0.55033   0.33743   0.20205
C          C       0.48887   0.62372   0.29971
C          C       0.51113   0.37628   0.20029
C          C       0.47161   0.56476   0.29568
C          C       0.52839   0.43524   0.20432
C          C       0.54628   0.64292   0.29529
C          C       0.45372   0.35708   0.20471
C          C       0.50931   0.52817   0.26006
C          C       0.49069   0.47183   0.23994
C          C       0.41623   0.54200   0.32566
C          C       0.58377   0.45800   0.17434
C          C       0.58597   0.60682   0.27225
C          C       0.41403   0.39318   0.22775
C          C       0.56591   0.54927   0.24384
C          C       0.43409   0.45073   0.25616
C          C       0.39792   0.48672   0.30549
C          C       0.60208   0.51328   0.19451
C          C       0.64334   0.62728   0.27016
C          C       0.35666   0.37272   0.22984
C          C       0.68368   0.60170   0.35959
C          C       0.31632   0.39830   0.14041
C          C       0.66541   0.66892   0.16565
C          C       0.33459   0.33108   0.33435
C          C       0.73984   0.61251   0.33574
C          C       0.26016   0.38749   0.16426
C          C       0.72195   0.67872   0.14462
C          C       0.27805   0.32128   0.35538
C          C       0.76064   0.65020   0.22591
C          C       0.23936   0.34980   0.27409
O          O       0.90405   0.60809   0.06839
O          O       0.09595   0.39191   0.43161
O          O       0.60299   0.12223   0.38805
O          O       0.39701   0.87777   0.11195
N          N       0.85357   0.62935   0.26095
N          N       0.14643   0.37065   0.23905
C          C       0.89540   0.60487   0.19615
C          C       0.10460   0.39513   0.30385
N          N       0.64469   0.16374   0.18224
N          N       0.35531   0.83626   0.31776
C          C       0.61238   0.12145   0.26089
C          C       0.38762   0.87855   0.23911
H          H       0.83548   0.69193   0.10777
H          H       0.16452   0.30807   0.39224
H          H       0.91210   0.58155   0.40871
H          H       0.08790   0.41845   0.09129
H          H       0.92802   0.47673   0.43721
H          H       0.07198   0.52327   0.06279
H          H       0.00471   0.59006   0.10241
H          H       0.99529   0.40994   0.39759
H          H       0.70531   0.21949   0.29266
H          H       0.29469   0.78051   0.20735
H          H       0.60827   0.07858   0.06381
H          H       0.39173   0.92142   0.43619
H          H       0.59321   0.00112   0.38519
H          H       0.40679   0.99888   0.11481
H          H       0.48746   0.06828   0.04328
H          H       0.51254   0.93172   0.45672
H          H       0.43029   0.78684   0.45044
H          H       0.56971   0.21316   0.04956
H          H       0.32855   0.69304   0.11215
H          H       0.67145   0.30696   0.38785
H          H       0.49474   0.71478   0.46908
H          H       0.50526   0.28522   0.03092
H          H       0.39368   0.62121   0.12586
H          H       0.60632   0.37879   0.37414
H          H       0.56197   0.68908   0.31064
H          H       0.43803   0.31092   0.18936
H          H       0.38624   0.56986   0.36720
H          H       0.61376   0.43014   0.13280
H          H       0.35291   0.46907   0.32852
H          H       0.64709   0.53093   0.17148
H          H       0.66923   0.57187   0.45217
H          H       0.33077   0.42813   0.04783
H          H       0.63593   0.69411   0.09945
H          H       0.36407   0.30589   0.40055
H          H       0.77105   0.59075   0.40575
H          H       0.22895   0.40925   0.09425
H          H       0.73878   0.71080   0.05917
H          H       0.26122   0.28920   0.44084
C          C       0.81931   0.65923   0.69252
C          C       0.18069   0.34077   0.80748
N          N       0.92304   0.57455   0.79707
N          N       0.07696   0.42545   0.70293
C          C       0.96131   0.53801   0.77199
C          C       0.03869   0.46199   0.72801
C          C       0.96031   0.48784   0.85186
C          C       0.03969   0.51216   0.64814
C          C       0.00200   0.54945   0.66986
C          C       0.99800   0.45055   0.83014
C          C       0.66212   0.21187   0.73630
C          C       0.33788   0.78813   0.76370
N          N       0.59008   0.07980   0.67064
N          N       0.40992   0.92020   0.82936
C          C       0.54556   0.03947   0.71005
C          C       0.45444   0.96053   0.78995
C          C       0.55125   0.00104   0.82345
C          C       0.44875   0.99896   0.67655
C          C       0.49360   0.03765   0.63706
C          C       0.50640   0.96235   0.86294
C          C       0.37521   0.74560   0.77826
C          C       0.62479   0.25440   0.72174
C          C       0.42172   0.74973   0.87678
C          C       0.57828   0.25027   0.62322
C          C       0.36620   0.69861   0.69140
C          C       0.63380   0.30139   0.80860
C          C       0.45775   0.71011   0.88770
C          C       0.54225   0.28989   0.61230
C          C       0.40180   0.65853   0.69891
C          C       0.59820   0.34147   0.80109
C          C       0.44967   0.66257   0.79795
C          C       0.55033   0.33743   0.70205
C          C       0.48887   0.62372   0.79971
C          C       0.51113   0.37628   0.70029
C          C       0.47161   0.56476   0.79568
C          C       0.52839   0.43524   0.70432
C          C       0.54628   0.64292   0.79529
C          C       0.45372   0.35708   0.70471
C          C       0.50931   0.52817   0.76006
C          C       0.49069   0.47183   0.73994
C          C       0.41623   0.54200   0.82566
C          C       0.58377   0.45800   0.67434
C          C       0.58597   0.60682   0.77225
C          C       0.41403   0.39318   0.72776
C          C       0.56591   0.54927   0.74384
C          C       0.43409   0.45073   0.75616
C          C       0.39792   0.48672   0.80549
C          C       0.60208   0.51328   0.69452
C          C       0.64334   0.62728   0.77016
C          C       0.35666   0.37272   0.72984
C          C       0.68368   0.60170   0.85959
C          C       0.31632   0.39830   0.64041
C          C       0.66541   0.66892   0.66565
C          C       0.33459   0.33108   0.83435
C          C       0.73984   0.61251   0.83574
C          C       0.26016   0.38749   0.66426
C          C       0.72195   0.67872   0.64462
C          C       0.27805   0.32128   0.85538
C          C       0.76064   0.65020   0.72591
C          C       0.23936   0.34980   0.77409
O          O       0.90405   0.60809   0.56839
O          O       0.09595   0.39191   0.93161
O          O       0.60299   0.12223   0.88805
O          O       0.39701   0.87777   0.61195
N          N       0.85357   0.62935   0.76095
N          N       0.14643   0.37065   0.73905
C          C       0.89540   0.60487   0.69615
C          C       0.10460   0.39513   0.80385
N          N       0.64469   0.16374   0.68224
N          N       0.35531   0.83626   0.81776
C          C       0.61238   0.12145   0.76089
C          C       0.38762   0.87855   0.73911
H          H       0.83548   0.69193   0.60776
H          H       0.16452   0.30807   0.89224
H          H       0.91210   0.58155   0.90871
H          H       0.08790   0.41845   0.59129
H          H       0.92802   0.47673   0.93721
H          H       0.07198   0.52327   0.56279
H          H       0.00471   0.59006   0.60241
H          H       0.99529   0.40994   0.89759
H          H       0.70531   0.21949   0.79265
H          H       0.29469   0.78051   0.70735
H          H       0.60827   0.07858   0.56381
H          H       0.39173   0.92142   0.93619
H          H       0.59321   0.00112   0.88519
H          H       0.40679   0.99888   0.61481
H          H       0.48746   0.06828   0.54328
H          H       0.51254   0.93172   0.95672
H          H       0.43029   0.78684   0.95044
H          H       0.56971   0.21316   0.54956
H          H       0.32855   0.69304   0.61215
H          H       0.67145   0.30696   0.88785
H          H       0.49474   0.71478   0.96908
H          H       0.50526   0.28522   0.53092
H          H       0.39368   0.62121   0.62586
H          H       0.60632   0.37879   0.87414
H          H       0.56197   0.68908   0.81064
H          H       0.43803   0.31092   0.68936
H          H       0.38624   0.56986   0.86720
H          H       0.61376   0.43014   0.63280
H          H       0.35291   0.46907   0.82852
H          H       0.64709   0.53093   0.67148
H          H       0.66923   0.57187   0.95217
H          H       0.33077   0.42813   0.54784
H          H       0.63593   0.69411   0.59945
H          H       0.36407   0.30589   0.90055
H          H       0.77105   0.59075   0.90575
H          H       0.22895   0.40925   0.59425
H          H       0.73878   0.71080   0.55917
H          H       0.26122   0.28920   0.94084
