data_crystal

_cell_length_a    38.49620
_cell_length_b    42.69970
_cell_length_c    7.59400
_cell_angle_alpha 90.00000
_cell_angle_beta  90.00000
_cell_angle_gamma 90.00000

_space_group_name_Hall 'P 1'
_space_group_name_H-M_alt  'P 1'

loop_
_symmetry_equiv_pos_as_xyz
 'x,y,z'

loop_
_atom_site_label
_atom_site_type_symbol
_atom_site_fract_x
_atom_site_fract_y
_atom_site_fract_z
C          C       0.51803   0.44357   0.03304
C          C       0.48197   0.55643   0.03304
C          C       0.51803   0.55643   0.03304
C          C       0.48197   0.44357   0.03304
C          C       0.01803   0.94357   0.03304
C          C       0.98197   0.05643   0.03304
C          C       0.01803   0.05643   0.03304
C          C       0.98197   0.94357   0.03304
C          C       0.53696   0.47117   0.00340
C          C       0.46304   0.52883   0.00340
C          C       0.53696   0.52883   0.00340
C          C       0.46304   0.47117   0.00340
C          C       0.03696   0.97117   0.00340
C          C       0.96304   0.02883   0.00340
C          C       0.03696   0.02883   0.00340
C          C       0.96304   0.97117   0.00340
C          C       0.42626   0.47126   0.48666
C          C       0.57374   0.52874   0.48666
C          C       0.42626   0.52874   0.48666
C          C       0.57374   0.47126   0.48666
C          C       0.92626   0.97126   0.48666
C          C       0.07374   0.02874   0.48666
C          C       0.92626   0.02874   0.48666
C          C       0.07374   0.97126   0.48666
C          C       0.40379   0.44269   0.47880
C          C       0.59621   0.55731   0.47880
C          C       0.40379   0.55731   0.47880
C          C       0.59621   0.44269   0.47880
C          C       0.90379   0.94269   0.47880
C          C       0.09621   0.05731   0.47880
C          C       0.90379   0.05731   0.47880
C          C       0.09621   0.94269   0.47880
C          C       0.41370   0.41572   0.38507
C          C       0.58630   0.58428   0.38507
C          C       0.41370   0.58428   0.38507
C          C       0.58630   0.41572   0.38507
C          C       0.91370   0.91572   0.38507
C          C       0.08630   0.08428   0.38507
C          C       0.91370   0.08428   0.38507
C          C       0.08630   0.91572   0.38507
C          C       0.39225   0.38935   0.38001
C          C       0.60775   0.61065   0.38001
C          C       0.39225   0.61065   0.38001
C          C       0.60775   0.38935   0.38001
C          C       0.89225   0.88935   0.38001
C          C       0.10775   0.11065   0.38001
C          C       0.89225   0.11065   0.38001
C          C       0.10775   0.88935   0.38001
C          C       0.35969   0.38973   0.46232
C          C       0.64031   0.61027   0.46232
C          C       0.35969   0.61027   0.46232
C          C       0.64031   0.38973   0.46232
C          C       0.85969   0.88973   0.46232
C          C       0.14031   0.11027   0.46232
C          C       0.85969   0.11027   0.46232
C          C       0.14031   0.88973   0.46232
C          C       0.34882   0.41705   0.04912
C          C       0.65118   0.58295   0.04912
C          C       0.34882   0.58295   0.04912
C          C       0.65118   0.41705   0.04912
C          C       0.84882   0.91705   0.04912
C          C       0.15118   0.08295   0.04912
C          C       0.84882   0.08295   0.04912
C          C       0.15118   0.91705   0.04912
C          C       0.37064   0.44315   0.05767
C          C       0.62936   0.55685   0.05767
C          C       0.37064   0.55685   0.05767
C          C       0.62936   0.44315   0.05767
C          C       0.87064   0.94315   0.05767
C          C       0.12936   0.05685   0.05767
C          C       0.87064   0.05685   0.05767
C          C       0.12936   0.94315   0.05767
C          C       0.33748   0.36162   0.45496
C          C       0.66252   0.63838   0.45496
C          C       0.33748   0.63838   0.45496
C          C       0.66252   0.36162   0.45496
C          C       0.83748   0.86162   0.45496
C          C       0.16252   0.13838   0.45496
C          C       0.83748   0.13838   0.45496
C          C       0.16252   0.86162   0.45496
C          C       0.72698   0.72392   0.03622
C          C       0.27302   0.27608   0.03622
C          C       0.72698   0.27608   0.03622
C          C       0.27302   0.72392   0.03622
C          C       0.22698   0.22392   0.03622
C          C       0.77302   0.77608   0.03622
C          C       0.22698   0.77608   0.03622
C          C       0.77302   0.22392   0.03622
C          C       0.71423   0.75480   0.03440
C          C       0.28577   0.24520   0.03440
C          C       0.71423   0.24520   0.03440
C          C       0.28577   0.75480   0.03440
C          C       0.21423   0.25480   0.03440
C          C       0.78577   0.74520   0.03440
C          C       0.21423   0.74520   0.03440
C          C       0.78577   0.25480   0.03440
C          C       0.73676   0.78044   0.03248
C          C       0.26324   0.21956   0.03248
C          C       0.73676   0.21956   0.03248
C          C       0.26324   0.78044   0.03248
C          C       0.23676   0.28044   0.03248
C          C       0.76324   0.71956   0.03248
C          C       0.23676   0.71956   0.03248
C          C       0.76324   0.28044   0.03248
C          C       0.70193   0.69715   0.03847
C          C       0.29807   0.30285   0.03847
C          C       0.70193   0.30285   0.03847
C          C       0.29807   0.69715   0.03847
C          C       0.20193   0.19715   0.03847
C          C       0.79807   0.80285   0.03847
C          C       0.20193   0.80285   0.03847
C          C       0.79807   0.19715   0.03847
N          N       0.69038   0.64041   0.05103
N          N       0.30962   0.35959   0.05103
N          N       0.69038   0.35959   0.05103
N          N       0.30962   0.64041   0.05103
N          N       0.19038   0.14041   0.05103
N          N       0.80962   0.85959   0.05103
N          N       0.19038   0.85959   0.05103
N          N       0.80962   0.14041   0.05103
O          O       0.17094   0.20292   0.02912
O          O       0.82906   0.79708   0.02912
O          O       0.17094   0.79708   0.02912
O          O       0.82906   0.20292   0.02912
O          O       0.67094   0.70292   0.02912
O          O       0.32906   0.29708   0.02912
O          O       0.67094   0.29708   0.02912
O          O       0.32906   0.70292   0.02912
N          N       0.21277   0.16654   0.05645
N          N       0.78723   0.83346   0.05645
N          N       0.21277   0.83346   0.05645
N          N       0.78723   0.16654   0.05645
N          N       0.71277   0.66654   0.05645
N          N       0.28723   0.33346   0.05645
N          N       0.71277   0.33346   0.05645
N          N       0.28723   0.66654   0.05645
H          H       0.53058   0.42154   0.05969
H          H       0.46942   0.57846   0.05969
H          H       0.53058   0.57846   0.05969
H          H       0.46942   0.42154   0.05969
H          H       0.03058   0.92154   0.05969
H          H       0.96942   0.07846   0.05969
H          H       0.03058   0.07846   0.05969
H          H       0.96942   0.92154   0.05969
H          H       0.43777   0.41504   0.31262
H          H       0.56223   0.58496   0.31262
H          H       0.43777   0.58496   0.31262
H          H       0.56223   0.41504   0.31262
H          H       0.93777   0.91504   0.31262
H          H       0.06223   0.08496   0.31262
H          H       0.93777   0.08496   0.31262
H          H       0.06223   0.91504   0.31262
H          H       0.40085   0.36879   0.30869
H          H       0.59915   0.63121   0.30869
H          H       0.40085   0.63121   0.30869
H          H       0.59915   0.36879   0.30869
H          H       0.90085   0.86879   0.30869
H          H       0.09915   0.13121   0.30869
H          H       0.90085   0.13121   0.30869
H          H       0.09915   0.86879   0.30869
H          H       0.32368   0.41816   0.11270
H          H       0.67632   0.58184   0.11270
H          H       0.32368   0.58184   0.11270
H          H       0.67632   0.41816   0.11270
H          H       0.82368   0.91816   0.11270
H          H       0.17632   0.08184   0.11270
H          H       0.82368   0.08184   0.11270
H          H       0.17632   0.91816   0.11270
H          H       0.36175   0.46359   0.12911
H          H       0.63825   0.53641   0.12911
H          H       0.36175   0.53641   0.12911
H          H       0.63825   0.46359   0.12911
H          H       0.86175   0.96359   0.12911
H          H       0.13825   0.03641   0.12911
H          H       0.86175   0.03641   0.12911
H          H       0.13825   0.96359   0.12911
H          H       0.34470   0.34289   0.36632
H          H       0.65530   0.65711   0.36632
H          H       0.34470   0.65711   0.36632
H          H       0.65530   0.34289   0.36632
H          H       0.84470   0.84289   0.36632
H          H       0.15530   0.15711   0.36632
H          H       0.84470   0.15711   0.36632
H          H       0.15530   0.84289   0.36632
H          H       0.68655   0.75932   0.03361
H          H       0.31345   0.24068   0.03361
H          H       0.68655   0.24068   0.03361
H          H       0.31345   0.75932   0.03361
H          H       0.18655   0.25932   0.03361
H          H       0.81345   0.74068   0.03361
H          H       0.18655   0.74068   0.03361
H          H       0.81345   0.25932   0.03361
H          H       0.72516   0.80340   0.02645
H          H       0.27484   0.19660   0.02645
H          H       0.72516   0.19660   0.02645
H          H       0.27484   0.80340   0.02645
H          H       0.22516   0.30340   0.02645
H          H       0.77484   0.69660   0.02645
H          H       0.22516   0.69660   0.02645
H          H       0.77484   0.30340   0.02645
H          H       0.23817   0.16180   0.09484
H          H       0.76183   0.83820   0.09484
H          H       0.23817   0.83820   0.09484
H          H       0.76183   0.16180   0.09484
H          H       0.73817   0.66180   0.09484
H          H       0.26183   0.33820   0.09484
H          H       0.73817   0.33820   0.09484
H          H       0.26183   0.66180   0.09484
C          C       0.48148   0.50000   0.00064
C          C       0.51852   0.50000   0.00064
C          C       0.98148   0.00000   0.00064
C          C       0.01852   0.00000   0.00064
C          C       0.40923   0.50000   0.47661
C          C       0.59077   0.50000   0.47661
C          C       0.90923   0.00000   0.47661
C          C       0.09077   0.00000   0.47661
C          C       0.51803   0.44357   0.53304
C          C       0.48197   0.55643   0.53304
C          C       0.51803   0.55643   0.53304
C          C       0.48197   0.44357   0.53304
C          C       0.01803   0.94357   0.53304
C          C       0.98197   0.05643   0.53304
C          C       0.01803   0.05643   0.53304
C          C       0.98197   0.94357   0.53304
C          C       0.53696   0.47117   0.50340
C          C       0.46304   0.52883   0.50340
C          C       0.53696   0.52883   0.50340
C          C       0.46304   0.47117   0.50340
C          C       0.03696   0.97117   0.50340
C          C       0.96304   0.02883   0.50340
C          C       0.03696   0.02883   0.50340
C          C       0.96304   0.97117   0.50340
C          C       0.42626   0.47126   0.98666
C          C       0.57374   0.52874   0.98666
C          C       0.42626   0.52874   0.98666
C          C       0.57374   0.47126   0.98666
C          C       0.92626   0.97126   0.98666
C          C       0.07374   0.02874   0.98666
C          C       0.92626   0.02874   0.98666
C          C       0.07374   0.97126   0.98666
C          C       0.40379   0.44269   0.97880
C          C       0.59621   0.55731   0.97880
C          C       0.40379   0.55731   0.97880
C          C       0.59621   0.44269   0.97880
C          C       0.90379   0.94269   0.97880
C          C       0.09621   0.05731   0.97880
C          C       0.90379   0.05731   0.97880
C          C       0.09621   0.94269   0.97880
C          C       0.41370   0.41572   0.88507
C          C       0.58630   0.58428   0.88507
C          C       0.41370   0.58428   0.88507
C          C       0.58630   0.41572   0.88507
C          C       0.91370   0.91572   0.88507
C          C       0.08630   0.08428   0.88507
C          C       0.91370   0.08428   0.88507
C          C       0.08630   0.91572   0.88507
C          C       0.39225   0.38935   0.88001
C          C       0.60775   0.61065   0.88001
C          C       0.39225   0.61065   0.88001
C          C       0.60775   0.38935   0.88001
C          C       0.89225   0.88935   0.88001
C          C       0.10775   0.11065   0.88001
C          C       0.89225   0.11065   0.88001
C          C       0.10775   0.88935   0.88001
C          C       0.35969   0.38973   0.96232
C          C       0.64031   0.61027   0.96232
C          C       0.35969   0.61027   0.96232
C          C       0.64031   0.38973   0.96232
C          C       0.85969   0.88973   0.96232
C          C       0.14031   0.11027   0.96232
C          C       0.85969   0.11027   0.96232
C          C       0.14031   0.88973   0.96232
C          C       0.34882   0.41705   0.54912
C          C       0.65118   0.58295   0.54912
C          C       0.34882   0.58295   0.54912
C          C       0.65118   0.41705   0.54912
C          C       0.84882   0.91705   0.54912
C          C       0.15118   0.08295   0.54912
C          C       0.84882   0.08295   0.54912
C          C       0.15118   0.91705   0.54912
C          C       0.37064   0.44315   0.55767
C          C       0.62936   0.55685   0.55767
C          C       0.37064   0.55685   0.55767
C          C       0.62936   0.44315   0.55767
C          C       0.87064   0.94315   0.55767
C          C       0.12936   0.05685   0.55767
C          C       0.87064   0.05685   0.55767
C          C       0.12936   0.94315   0.55767
C          C       0.33748   0.36162   0.95496
C          C       0.66252   0.63838   0.95496
C          C       0.33748   0.63838   0.95496
C          C       0.66252   0.36162   0.95496
C          C       0.83748   0.86162   0.95496
C          C       0.16252   0.13838   0.95496
C          C       0.83748   0.13838   0.95496
C          C       0.16252   0.86162   0.95496
C          C       0.72698   0.72392   0.53622
C          C       0.27302   0.27608   0.53622
C          C       0.72698   0.27608   0.53622
C          C       0.27302   0.72392   0.53622
C          C       0.22698   0.22392   0.53622
C          C       0.77302   0.77608   0.53622
C          C       0.22698   0.77608   0.53622
C          C       0.77302   0.22392   0.53622
C          C       0.71423   0.75480   0.53441
C          C       0.28577   0.24520   0.53441
C          C       0.71423   0.24520   0.53441
C          C       0.28577   0.75480   0.53441
C          C       0.21423   0.25480   0.53441
C          C       0.78577   0.74520   0.53441
C          C       0.21423   0.74520   0.53441
C          C       0.78577   0.25480   0.53441
C          C       0.73676   0.78044   0.53248
C          C       0.26324   0.21956   0.53248
C          C       0.73676   0.21956   0.53248
C          C       0.26324   0.78044   0.53248
C          C       0.23676   0.28044   0.53248
C          C       0.76324   0.71956   0.53248
C          C       0.23676   0.71956   0.53248
C          C       0.76324   0.28044   0.53248
C          C       0.70193   0.69715   0.53847
C          C       0.29807   0.30285   0.53847
C          C       0.70193   0.30285   0.53847
C          C       0.29807   0.69715   0.53847
C          C       0.20193   0.19715   0.53847
C          C       0.79807   0.80285   0.53847
C          C       0.20193   0.80285   0.53847
C          C       0.79807   0.19715   0.53847
N          N       0.69038   0.64041   0.55103
N          N       0.30962   0.35959   0.55103
N          N       0.69038   0.35959   0.55103
N          N       0.30962   0.64041   0.55103
N          N       0.19038   0.14041   0.55103
N          N       0.80962   0.85959   0.55103
N          N       0.19038   0.85959   0.55103
N          N       0.80962   0.14041   0.55103
O          O       0.17094   0.20292   0.52912
O          O       0.82906   0.79708   0.52912
O          O       0.17094   0.79708   0.52912
O          O       0.82906   0.20292   0.52912
O          O       0.67094   0.70292   0.52912
O          O       0.32906   0.29708   0.52912
O          O       0.67094   0.29708   0.52912
O          O       0.32906   0.70292   0.52912
N          N       0.21277   0.16654   0.55645
N          N       0.78723   0.83346   0.55645
N          N       0.21277   0.83346   0.55645
N          N       0.78723   0.16654   0.55645
N          N       0.71277   0.66654   0.55645
N          N       0.28723   0.33346   0.55645
N          N       0.71277   0.33346   0.55645
N          N       0.28723   0.66654   0.55645
H          H       0.53058   0.42154   0.55969
H          H       0.46942   0.57846   0.55969
H          H       0.53058   0.57846   0.55969
H          H       0.46942   0.42154   0.55969
H          H       0.03058   0.92154   0.55969
H          H       0.96942   0.07846   0.55969
H          H       0.03058   0.07846   0.55969
H          H       0.96942   0.92154   0.55969
H          H       0.43777   0.41504   0.81262
H          H       0.56223   0.58496   0.81262
H          H       0.43777   0.58496   0.81262
H          H       0.56223   0.41504   0.81262
H          H       0.93777   0.91504   0.81262
H          H       0.06223   0.08496   0.81262
H          H       0.93777   0.08496   0.81262
H          H       0.06223   0.91504   0.81262
H          H       0.40085   0.36879   0.80869
H          H       0.59915   0.63121   0.80869
H          H       0.40085   0.63121   0.80869
H          H       0.59915   0.36879   0.80869
H          H       0.90085   0.86879   0.80869
H          H       0.09915   0.13121   0.80869
H          H       0.90085   0.13121   0.80869
H          H       0.09915   0.86879   0.80869
H          H       0.32368   0.41816   0.61269
H          H       0.67632   0.58184   0.61269
H          H       0.32368   0.58184   0.61269
H          H       0.67632   0.41816   0.61269
H          H       0.82368   0.91816   0.61269
H          H       0.17632   0.08184   0.61269
H          H       0.82368   0.08184   0.61269
H          H       0.17632   0.91816   0.61269
H          H       0.36175   0.46359   0.62911
H          H       0.63825   0.53641   0.62911
H          H       0.36175   0.53641   0.62911
H          H       0.63825   0.46359   0.62911
H          H       0.86175   0.96359   0.62911
H          H       0.13825   0.03641   0.62911
H          H       0.86175   0.03641   0.62911
H          H       0.13825   0.96359   0.62911
H          H       0.34470   0.34289   0.86632
H          H       0.65530   0.65711   0.86632
H          H       0.34470   0.65711   0.86632
H          H       0.65530   0.34289   0.86632
H          H       0.84470   0.84289   0.86632
H          H       0.15530   0.15711   0.86632
H          H       0.84470   0.15711   0.86632
H          H       0.15530   0.84289   0.86632
H          H       0.68655   0.75932   0.53361
H          H       0.31345   0.24068   0.53361
H          H       0.68655   0.24068   0.53361
H          H       0.31345   0.75932   0.53361
H          H       0.18655   0.25932   0.53361
H          H       0.81345   0.74068   0.53361
H          H       0.18655   0.74068   0.53361
H          H       0.81345   0.25932   0.53361
H          H       0.72516   0.80340   0.52645
H          H       0.27484   0.19660   0.52645
H          H       0.72516   0.19660   0.52645
H          H       0.27484   0.80340   0.52645
H          H       0.22516   0.30340   0.52645
H          H       0.77484   0.69660   0.52645
H          H       0.22516   0.69660   0.52645
H          H       0.77484   0.30340   0.52645
H          H       0.23817   0.16180   0.59484
H          H       0.76183   0.83820   0.59484
H          H       0.23817   0.83820   0.59484
H          H       0.76183   0.16180   0.59484
H          H       0.73817   0.66180   0.59484
H          H       0.26183   0.33820   0.59484
H          H       0.73817   0.33820   0.59484
H          H       0.26183   0.66180   0.59484
C          C       0.48148   0.50000   0.50063
C          C       0.51852   0.50000   0.50063
C          C       0.98148   0.00000   0.50063
C          C       0.01852   0.00000   0.50063
C          C       0.40923   0.50000   0.97661
C          C       0.59077   0.50000   0.97661
C          C       0.90923   0.00000   0.97661
C          C       0.09077   0.00000   0.97661
