data_crystal

_cell_length_a    42.30000
_cell_length_b    42.30000
_cell_length_c    8.20000
_cell_angle_alpha 90.00000
_cell_angle_beta  90.00000
_cell_angle_gamma 120.00000

_space_group_name_Hall 'P 1'
_space_group_name_H-M_alt  'P 1'

loop_
_symmetry_equiv_pos_as_xyz
 'x,y,z'

loop_
_atom_site_label
_atom_site_type_symbol
_atom_site_fract_x
_atom_site_fract_y
_atom_site_fract_z
C          C       0.56156   0.96132   0.30026
C          C       0.03868   0.60024   0.30026
C          C       0.39976   0.43844   0.30026
C          C       0.43844   0.03868   0.30026
C          C       0.96132   0.39976   0.30026
C          C       0.60024   0.56156   0.30026
C          C       0.53265   0.99774   0.36947
C          C       0.00226   0.53491   0.36947
C          C       0.46509   0.46735   0.36947
C          C       0.46735   0.00226   0.36947
C          C       0.99774   0.46509   0.36947
C          C       0.53491   0.53265   0.36947
C          C       0.46628   0.96865   0.38627
C          C       0.03135   0.49763   0.38627
C          C       0.50237   0.53372   0.38627
C          C       0.53372   0.03135   0.38627
C          C       0.96865   0.50237   0.38627
C          C       0.49763   0.46628   0.38627
C          C       0.49794   0.96649   0.38544
C          C       0.03351   0.53145   0.38544
C          C       0.46855   0.50206   0.38544
C          C       0.50206   0.03351   0.38544
C          C       0.96649   0.46855   0.38544
C          C       0.53145   0.49794   0.38544
C          C       0.58417   0.94944   0.36901
C          C       0.05056   0.63473   0.36901
C          C       0.36527   0.41583   0.36901
C          C       0.41583   0.05056   0.36901
C          C       0.94944   0.36527   0.36901
C          C       0.63473   0.58417   0.36901
C          C       0.58122   0.91656   0.32332
C          C       0.08344   0.66466   0.32332
C          C       0.33534   0.41878   0.32332
C          C       0.41878   0.08344   0.32332
C          C       0.91656   0.33534   0.32332
C          C       0.66466   0.58122   0.32332
C          C       0.55520   0.89355   0.20869
C          C       0.10645   0.66165   0.20869
C          C       0.33835   0.44480   0.20869
C          C       0.44480   0.10645   0.20869
C          C       0.89355   0.33835   0.20869
C          C       0.66165   0.55520   0.20869
C          C       0.53225   0.90533   0.14181
C          C       0.09467   0.62692   0.14181
C          C       0.37308   0.46775   0.14181
C          C       0.46775   0.09467   0.14181
C          C       0.90533   0.37308   0.14181
C          C       0.62692   0.53225   0.14181
C          C       0.53568   0.93862   0.18504
C          C       0.06138   0.59706   0.18504
C          C       0.40294   0.46432   0.18504
C          C       0.46432   0.06138   0.18504
C          C       0.93862   0.40294   0.18504
C          C       0.59706   0.53568   0.18504
N          N       0.55016   0.85950   0.16136
N          N       0.14050   0.69066   0.16136
N          N       0.30934   0.44984   0.16136
N          N       0.44984   0.14050   0.16136
N          N       0.85950   0.30934   0.16136
N          N       0.69066   0.55016   0.16136
C          C       0.57493   0.85135   0.19742
C          C       0.14865   0.72358   0.19742
C          C       0.27642   0.42507   0.19742
C          C       0.42507   0.14865   0.19742
C          C       0.85135   0.27642   0.19742
C          C       0.72358   0.57493   0.19742
C          C       0.57151   0.81579   0.17282
C          C       0.18421   0.75572   0.17282
C          C       0.24428   0.42849   0.17282
C          C       0.42849   0.18421   0.17282
C          C       0.81579   0.24428   0.17282
C          C       0.75572   0.57151   0.17282
C          C       0.54323   0.78715   0.08427
C          C       0.21285   0.75608   0.08427
C          C       0.24392   0.45677   0.08427
C          C       0.45677   0.21285   0.08427
C          C       0.78715   0.24392   0.08427
C          C       0.75608   0.54323   0.08427
C          C       0.54111   0.75336   0.07752
C          C       0.24664   0.78775   0.07752
C          C       0.21225   0.45889   0.07752
C          C       0.45889   0.24664   0.07752
C          C       0.75336   0.21225   0.07752
C          C       0.78775   0.54111   0.07752
C          C       0.56624   0.74676   0.16188
C          C       0.25324   0.81948   0.16188
C          C       0.18052   0.43376   0.16188
C          C       0.43376   0.25324   0.16188
C          C       0.74676   0.18052   0.16188
C          C       0.81948   0.56624   0.16188
C          C       0.59498   0.77570   0.24723
C          C       0.22430   0.81928   0.24723
C          C       0.18072   0.40502   0.24723
C          C       0.40502   0.22430   0.24723
C          C       0.77570   0.18072   0.24723
C          C       0.81928   0.59498   0.24723
C          C       0.59769   0.80963   0.25006
C          C       0.19037   0.78806   0.25006
C          C       0.21194   0.40231   0.25006
C          C       0.40231   0.19037   0.25006
C          C       0.80963   0.21194   0.25006
C          C       0.78806   0.59769   0.25006
C          C       0.56154   0.71022   0.16534
C          C       0.28978   0.85132   0.16534
C          C       0.14868   0.43846   0.16534
C          C       0.43846   0.28978   0.16534
C          C       0.71022   0.14868   0.16534
C          C       0.85132   0.56154   0.16534
N          N       0.58046   0.70251   0.26374
N          N       0.29749   0.87795   0.26374
N          N       0.12205   0.41954   0.26374
N          N       0.41954   0.29749   0.26374
N          N       0.70251   0.12205   0.26374
N          N       0.87795   0.58046   0.26374
C          C       0.57579   0.66748   0.27631
C          C       0.33252   0.90831   0.27631
C          C       0.09169   0.42421   0.27631
C          C       0.42421   0.33252   0.27631
C          C       0.66748   0.09169   0.27631
C          C       0.90831   0.57579   0.27631
C          C       0.54962   0.63610   0.19306
C          C       0.36390   0.91352   0.19306
C          C       0.08648   0.45038   0.19306
C          C       0.45038   0.36390   0.19306
C          C       0.63610   0.08648   0.19306
C          C       0.91352   0.54962   0.19306
C          C       0.54781   0.60274   0.21518
C          C       0.39726   0.94507   0.21518
C          C       0.05493   0.45219   0.21518
C          C       0.45219   0.39726   0.21518
C          C       0.60274   0.05493   0.21518
C          C       0.94507   0.54781   0.21518
C          C       0.57128   0.59900   0.32473
C          C       0.40100   0.97228   0.32473
C          C       0.02772   0.42872   0.32473
C          C       0.42872   0.40100   0.32473
C          C       0.59900   0.02772   0.32473
C          C       0.97228   0.57128   0.32473
C          C       0.59684   0.62996   0.40959
C          C       0.37004   0.96688   0.40959
C          C       0.03312   0.40316   0.40959
C          C       0.40316   0.37004   0.40959
C          C       0.62996   0.03312   0.40959
C          C       0.96688   0.59684   0.40959
C          C       0.59934   0.66358   0.38389
C          C       0.33642   0.93576   0.38389
C          C       0.06424   0.40066   0.38389
C          C       0.40066   0.33642   0.38389
C          C       0.66358   0.06424   0.38389
C          C       0.93576   0.59934   0.38389
N          N       0.56913   0.56438   0.34652
N          N       0.43562   0.00475   0.34652
N          N       0.99525   0.43087   0.34652
N          N       0.43087   0.43562   0.34652
N          N       0.56438   0.99525   0.34652
N          N       0.00475   0.56913   0.34652
H          H       0.44025   0.94345   0.39600
H          H       0.05655   0.49680   0.39600
H          H       0.50320   0.55975   0.39600
H          H       0.55975   0.05655   0.39600
H          H       0.94345   0.50320   0.39600
H          H       0.49680   0.44025   0.39600
H          H       0.49545   0.93970   0.39431
H          H       0.06030   0.55575   0.39431
H          H       0.44425   0.50455   0.39431
H          H       0.50455   0.06030   0.39431
H          H       0.93970   0.44425   0.39431
H          H       0.55575   0.49545   0.39431
H          H       0.60250   0.96452   0.46790
H          H       0.03548   0.63798   0.46790
H          H       0.36202   0.39750   0.46790
H          H       0.39750   0.03548   0.46790
H          H       0.96452   0.36202   0.46790
H          H       0.63798   0.60250   0.46790
H          H       0.59776   0.90747   0.38752
H          H       0.09253   0.69029   0.38752
H          H       0.30971   0.40224   0.38752
H          H       0.40224   0.09253   0.38752
H          H       0.90747   0.30971   0.38752
H          H       0.69029   0.59776   0.38752
H          H       0.51282   0.88879   0.04790
H          H       0.11121   0.62403   0.04790
H          H       0.37597   0.48718   0.04790
H          H       0.48718   0.11121   0.04790
H          H       0.88879   0.37597   0.04790
H          H       0.62403   0.51282   0.04790
H          H       0.51829   0.94739   0.12641
H          H       0.05261   0.57090   0.12641
H          H       0.42910   0.48171   0.12641
H          H       0.48171   0.05261   0.12641
H          H       0.94739   0.42910   0.12641
H          H       0.57090   0.51829   0.12641
H          H       0.60065   0.87104   0.25865
H          H       0.12896   0.72961   0.25865
H          H       0.27039   0.39935   0.25865
H          H       0.39935   0.12896   0.25865
H          H       0.87104   0.27039   0.25865
H          H       0.72961   0.60065   0.25865
H          H       0.52356   0.79204   0.02016
H          H       0.20796   0.73152   0.02016
H          H       0.26848   0.47644   0.02016
H          H       0.47644   0.20796   0.02016
H          H       0.79204   0.26848   0.02016
H          H       0.73152   0.52356   0.02016
H          H       0.51974   0.73133   0.00594
H          H       0.26867   0.78841   0.00594
H          H       0.21159   0.48026   0.00594
H          H       0.48026   0.26867   0.00594
H          H       0.73133   0.21159   0.00594
H          H       0.78841   0.51974   0.00594
H          H       0.61415   0.77051   0.31385
H          H       0.22949   0.84364   0.31385
H          H       0.15636   0.38585   0.31385
H          H       0.38585   0.22949   0.31385
H          H       0.77051   0.15636   0.31385
H          H       0.84364   0.61415   0.31385
H          H       0.61935   0.83197   0.31934
H          H       0.16803   0.78738   0.31934
H          H       0.21262   0.38065   0.31934
H          H       0.38065   0.16803   0.31934
H          H       0.83197   0.21262   0.31934
H          H       0.78738   0.61935   0.31934
H          H       0.54068   0.68996   0.08242
H          H       0.31004   0.85072   0.08242
H          H       0.14928   0.45932   0.08242
H          H       0.45932   0.31004   0.08242
H          H       0.68996   0.14928   0.08242
H          H       0.85072   0.54068   0.08242
H          H       0.53183   0.63824   0.10331
H          H       0.36176   0.89359   0.10331
H          H       0.10641   0.46817   0.10331
H          H       0.46817   0.36176   0.10331
H          H       0.63824   0.10641   0.10331
H          H       0.89359   0.53183   0.10331
H          H       0.52849   0.57922   0.14405
H          H       0.42078   0.94927   0.14405
H          H       0.05073   0.47151   0.14405
H          H       0.47151   0.42078   0.14405
H          H       0.57922   0.05073   0.14405
H          H       0.94927   0.52849   0.14405
H          H       0.61355   0.62763   0.00364
H          H       0.37237   0.98592   0.00364
H          H       0.01408   0.38645   0.00364
H          H       0.38645   0.37237   0.00364
H          H       0.62763   0.01408   0.00364
H          H       0.98592   0.61355   0.00364
H          H       0.61855   0.68728   0.45421
H          H       0.31272   0.93127   0.45421
H          H       0.06873   0.38145   0.45421
H          H       0.38145   0.31272   0.45421
H          H       0.68728   0.06873   0.45421
H          H       0.93127   0.61855   0.45421
C          C       0.56156   0.96132   0.80026
C          C       0.03868   0.60024   0.80026
C          C       0.39976   0.43844   0.80026
C          C       0.43844   0.03868   0.80026
C          C       0.96132   0.39976   0.80026
C          C       0.60024   0.56156   0.80026
C          C       0.53265   0.99774   0.86948
C          C       0.00226   0.53491   0.86948
C          C       0.46509   0.46735   0.86948
C          C       0.46735   0.00226   0.86948
C          C       0.99774   0.46509   0.86948
C          C       0.53491   0.53265   0.86948
C          C       0.46628   0.96865   0.88627
C          C       0.03135   0.49763   0.88627
C          C       0.50237   0.53372   0.88627
C          C       0.53372   0.03135   0.88627
C          C       0.96865   0.50237   0.88627
C          C       0.49763   0.46628   0.88627
C          C       0.49794   0.96649   0.88544
C          C       0.03351   0.53145   0.88544
C          C       0.46855   0.50206   0.88544
C          C       0.50206   0.03351   0.88544
C          C       0.96649   0.46855   0.88544
C          C       0.53145   0.49794   0.88544
C          C       0.58417   0.94944   0.86901
C          C       0.05056   0.63473   0.86901
C          C       0.36527   0.41583   0.86901
C          C       0.41583   0.05056   0.86901
C          C       0.94944   0.36527   0.86901
C          C       0.63473   0.58417   0.86901
C          C       0.58122   0.91656   0.82332
C          C       0.08344   0.66466   0.82332
C          C       0.33534   0.41878   0.82332
C          C       0.41878   0.08344   0.82332
C          C       0.91656   0.33534   0.82332
C          C       0.66466   0.58122   0.82332
C          C       0.55520   0.89355   0.70869
C          C       0.10645   0.66165   0.70869
C          C       0.33835   0.44480   0.70869
C          C       0.44480   0.10645   0.70869
C          C       0.89355   0.33835   0.70869
C          C       0.66165   0.55520   0.70869
C          C       0.53225   0.90533   0.64180
C          C       0.09467   0.62692   0.64180
C          C       0.37308   0.46775   0.64180
C          C       0.46775   0.09467   0.64180
C          C       0.90533   0.37308   0.64180
C          C       0.62692   0.53225   0.64180
C          C       0.53568   0.93862   0.68503
C          C       0.06138   0.59706   0.68503
C          C       0.40294   0.46432   0.68503
C          C       0.46432   0.06138   0.68503
C          C       0.93862   0.40294   0.68503
C          C       0.59706   0.53568   0.68503
N          N       0.55016   0.85950   0.66136
N          N       0.14050   0.69066   0.66136
N          N       0.30934   0.44984   0.66136
N          N       0.44984   0.14050   0.66136
N          N       0.85950   0.30934   0.66136
N          N       0.69066   0.55016   0.66136
C          C       0.57493   0.85135   0.69742
C          C       0.14865   0.72358   0.69742
C          C       0.27642   0.42507   0.69742
C          C       0.42507   0.14865   0.69742
C          C       0.85135   0.27642   0.69742
C          C       0.72358   0.57493   0.69742
C          C       0.57151   0.81579   0.67282
C          C       0.18421   0.75572   0.67282
C          C       0.24428   0.42849   0.67282
C          C       0.42849   0.18421   0.67282
C          C       0.81579   0.24428   0.67282
C          C       0.75572   0.57151   0.67282
C          C       0.54323   0.78715   0.58427
C          C       0.21285   0.75608   0.58427
C          C       0.24392   0.45677   0.58427
C          C       0.45677   0.21285   0.58427
C          C       0.78715   0.24392   0.58427
C          C       0.75608   0.54323   0.58427
C          C       0.54111   0.75336   0.57752
C          C       0.24664   0.78775   0.57752
C          C       0.21225   0.45889   0.57752
C          C       0.45889   0.24664   0.57752
C          C       0.75336   0.21225   0.57752
C          C       0.78775   0.54111   0.57752
C          C       0.56624   0.74676   0.66188
C          C       0.25324   0.81948   0.66188
C          C       0.18052   0.43376   0.66188
C          C       0.43376   0.25324   0.66188
C          C       0.74676   0.18052   0.66188
C          C       0.81948   0.56624   0.66188
C          C       0.59498   0.77570   0.74723
C          C       0.22430   0.81928   0.74723
C          C       0.18072   0.40502   0.74723
C          C       0.40502   0.22430   0.74723
C          C       0.77570   0.18072   0.74723
C          C       0.81928   0.59498   0.74723
C          C       0.59769   0.80963   0.75006
C          C       0.19037   0.78806   0.75006
C          C       0.21194   0.40231   0.75006
C          C       0.40231   0.19037   0.75006
C          C       0.80963   0.21194   0.75006
C          C       0.78806   0.59769   0.75006
C          C       0.56154   0.71022   0.66534
C          C       0.28978   0.85132   0.66534
C          C       0.14868   0.43846   0.66534
C          C       0.43846   0.28978   0.66534
C          C       0.71022   0.14868   0.66534
C          C       0.85132   0.56154   0.66534
N          N       0.58046   0.70251   0.76374
N          N       0.29749   0.87795   0.76374
N          N       0.12205   0.41954   0.76374
N          N       0.41954   0.29749   0.76374
N          N       0.70251   0.12205   0.76374
N          N       0.87795   0.58046   0.76374
C          C       0.57579   0.66748   0.77631
C          C       0.33252   0.90831   0.77631
C          C       0.09169   0.42421   0.77631
C          C       0.42421   0.33252   0.77631
C          C       0.66748   0.09169   0.77631
C          C       0.90831   0.57579   0.77631
C          C       0.54962   0.63610   0.69307
C          C       0.36390   0.91352   0.69307
C          C       0.08648   0.45038   0.69307
C          C       0.45038   0.36390   0.69307
C          C       0.63610   0.08648   0.69307
C          C       0.91352   0.54962   0.69307
C          C       0.54781   0.60274   0.71518
C          C       0.39726   0.94507   0.71518
C          C       0.05493   0.45219   0.71518
C          C       0.45219   0.39726   0.71518
C          C       0.60274   0.05493   0.71518
C          C       0.94507   0.54781   0.71518
C          C       0.57128   0.59900   0.82473
C          C       0.40100   0.97228   0.82473
C          C       0.02772   0.42872   0.82473
C          C       0.42872   0.40100   0.82473
C          C       0.59900   0.02772   0.82473
C          C       0.97228   0.57128   0.82473
C          C       0.59684   0.62996   0.90959
C          C       0.37004   0.96688   0.90959
C          C       0.03312   0.40316   0.90959
C          C       0.40316   0.37004   0.90959
C          C       0.62996   0.03312   0.90959
C          C       0.96688   0.59684   0.90959
C          C       0.59934   0.66358   0.88390
C          C       0.33642   0.93576   0.88390
C          C       0.06424   0.40066   0.88390
C          C       0.40066   0.33642   0.88390
C          C       0.66358   0.06424   0.88390
C          C       0.93576   0.59934   0.88390
N          N       0.56913   0.56438   0.84652
N          N       0.43562   0.00475   0.84652
N          N       0.99525   0.43087   0.84652
N          N       0.43087   0.43562   0.84652
N          N       0.56438   0.99525   0.84652
N          N       0.00475   0.56913   0.84652
H          H       0.44025   0.94345   0.89600
H          H       0.05655   0.49680   0.89600
H          H       0.50320   0.55975   0.89600
H          H       0.55975   0.05655   0.89600
H          H       0.94345   0.50320   0.89600
H          H       0.49680   0.44025   0.89600
H          H       0.49545   0.93970   0.89431
H          H       0.06030   0.55575   0.89431
H          H       0.44425   0.50455   0.89431
H          H       0.50455   0.06030   0.89431
H          H       0.93970   0.44425   0.89431
H          H       0.55575   0.49545   0.89431
H          H       0.60250   0.96452   0.96790
H          H       0.03548   0.63798   0.96790
H          H       0.36202   0.39750   0.96790
H          H       0.39750   0.03548   0.96790
H          H       0.96452   0.36202   0.96790
H          H       0.63798   0.60250   0.96790
H          H       0.59776   0.90747   0.88752
H          H       0.09253   0.69029   0.88752
H          H       0.30971   0.40224   0.88752
H          H       0.40224   0.09253   0.88752
H          H       0.90747   0.30971   0.88752
H          H       0.69029   0.59776   0.88752
H          H       0.51282   0.88879   0.54790
H          H       0.11121   0.62403   0.54790
H          H       0.37597   0.48718   0.54790
H          H       0.48718   0.11121   0.54790
H          H       0.88879   0.37597   0.54790
H          H       0.62403   0.51282   0.54790
H          H       0.51829   0.94739   0.62641
H          H       0.05261   0.57090   0.62641
H          H       0.42910   0.48171   0.62641
H          H       0.48171   0.05261   0.62641
H          H       0.94739   0.42910   0.62641
H          H       0.57090   0.51829   0.62641
H          H       0.60065   0.87104   0.75865
H          H       0.12896   0.72961   0.75865
H          H       0.27039   0.39935   0.75865
H          H       0.39935   0.12896   0.75865
H          H       0.87104   0.27039   0.75865
H          H       0.72961   0.60065   0.75865
H          H       0.52356   0.79204   0.52016
H          H       0.20796   0.73152   0.52016
H          H       0.26848   0.47644   0.52016
H          H       0.47644   0.20796   0.52016
H          H       0.79204   0.26848   0.52016
H          H       0.73152   0.52356   0.52016
H          H       0.51974   0.73133   0.50594
H          H       0.26867   0.78841   0.50594
H          H       0.21159   0.48026   0.50594
H          H       0.48026   0.26867   0.50594
H          H       0.73133   0.21159   0.50594
H          H       0.78841   0.51974   0.50594
H          H       0.61415   0.77051   0.81385
H          H       0.22949   0.84364   0.81385
H          H       0.15636   0.38585   0.81385
H          H       0.38585   0.22949   0.81385
H          H       0.77051   0.15636   0.81385
H          H       0.84364   0.61415   0.81385
H          H       0.61935   0.83197   0.81933
H          H       0.16803   0.78738   0.81933
H          H       0.21262   0.38065   0.81933
H          H       0.38065   0.16803   0.81933
H          H       0.83197   0.21262   0.81933
H          H       0.78738   0.61935   0.81933
H          H       0.54068   0.68996   0.58242
H          H       0.31004   0.85072   0.58242
H          H       0.14928   0.45932   0.58242
H          H       0.45932   0.31004   0.58242
H          H       0.68996   0.14928   0.58242
H          H       0.85072   0.54068   0.58242
H          H       0.53183   0.63824   0.60331
H          H       0.36176   0.89359   0.60331
H          H       0.10641   0.46817   0.60331
H          H       0.46817   0.36176   0.60331
H          H       0.63824   0.10641   0.60331
H          H       0.89359   0.53183   0.60331
H          H       0.52849   0.57922   0.64405
H          H       0.42078   0.94927   0.64405
H          H       0.05073   0.47151   0.64405
H          H       0.47151   0.42078   0.64405
H          H       0.57922   0.05073   0.64405
H          H       0.94927   0.52849   0.64405
H          H       0.61355   0.62763   0.50365
H          H       0.37237   0.98592   0.50365
H          H       0.01408   0.38645   0.50365
H          H       0.38645   0.37237   0.50365
H          H       0.62763   0.01408   0.50365
H          H       0.98592   0.61355   0.50365
H          H       0.61855   0.68728   0.95421
H          H       0.31272   0.93127   0.95421
H          H       0.06873   0.38145   0.95421
H          H       0.38145   0.31272   0.95421
H          H       0.68728   0.06873   0.95421
H          H       0.93127   0.61855   0.95421
