data_crystal

_cell_length_a    40.85750
_cell_length_b    40.85750
_cell_length_c    7.32060
_cell_angle_alpha 90.00000
_cell_angle_beta  90.00000
_cell_angle_gamma 120.00000

_symmetry_space_group_name_Hall 'P 1'
_symmetry_space_group_name_H-M  'P 1'

loop_
_symmetry_equiv_pos_as_xyz
 'x,y,z'

loop_
_atom_site_label
_atom_site_type_symbol
_atom_site_fract_x
_atom_site_fract_y
_atom_site_fract_z
C          C       0.37055   0.67775   0.45943
C          C       0.32225   0.69280   0.45943
C          C       0.30720   0.62945   0.45943
C          C       0.42150   0.66823   0.30772
C          C       0.33177   0.75327   0.30772
C          C       0.24673   0.57850   0.30772
C          C       0.45947   0.68195   0.26366
C          C       0.31805   0.77752   0.26366
C          C       0.22248   0.54053   0.26366
C          C       0.48799   0.71637   0.33519
C          C       0.28363   0.77162   0.33519
C          C       0.22838   0.51201   0.33519
C          C       0.47758   0.73884   0.43458
C          C       0.26116   0.73874   0.43458
C          C       0.26126   0.52242   0.43458
C          C       0.43949   0.72672   0.46761
C          C       0.27328   0.71277   0.46761
C          C       0.28723   0.56051   0.46761
C          C       0.41110   0.69083   0.40930
C          C       0.30917   0.72027   0.40930
C          C       0.27973   0.58890   0.40930
C          C       0.55047   0.72288   0.23161
C          C       0.27712   0.82759   0.23161
C          C       0.17241   0.44953   0.23161
N          N       0.52644   0.73410   0.27154
N          N       0.26590   0.79234   0.27154
N          N       0.20766   0.47356   0.27154
C          C       0.51547   0.65581   0.35180
C          C       0.34419   0.85966   0.35180
C          C       0.14034   0.48453   0.35180
C          C       0.50946   0.61940   0.35177
C          C       0.38060   0.89006   0.35177
C          C       0.10994   0.49054   0.35177
C          C       0.53571   0.61133   0.27370
C          C       0.38867   0.92438   0.27370
C          C       0.07562   0.46429   0.27370
C          C       0.56862   0.64054   0.19398
C          C       0.35946   0.92808   0.19398
C          C       0.07192   0.43138   0.19398
C          C       0.57348   0.67710   0.18437
C          C       0.32290   0.89638   0.18437
C          C       0.10362   0.42652   0.18437
C          C       0.54588   0.68468   0.25722
C          C       0.31532   0.86120   0.25722
C          C       0.13880   0.45412   0.25722
C          C       0.55533   0.56367   0.33792
C          C       0.43633   0.99166   0.33792
C          C       0.00834   0.44467   0.33792
C          C       0.54755   0.52664   0.34997
C          C       0.47336   0.02091   0.34997
C          C       0.97909   0.45245   0.34997
C          C       0.51266   0.49549   0.29374
C          C       0.50451   0.01717   0.29374
C          C       0.98283   0.48734   0.29374
C          C       0.48565   0.50484   0.23257
C          C       0.49516   0.98081   0.23257
C          C       0.01919   0.51435   0.23257
C          C       0.49297   0.54150   0.22892
C          C       0.45850   0.95147   0.22892
C          C       0.04853   0.50703   0.22892
C          C       0.52819   0.57235   0.27757
C          C       0.42765   0.95584   0.27757
C          C       0.04416   0.47181   0.27757
C          C       0.46803   0.42501   0.28687
C          C       0.57499   0.04302   0.28687
C          C       0.95698   0.53197   0.28687
C          C       0.46010   0.38918   0.22748
C          C       0.61082   0.07092   0.22748
C          C       0.92908   0.53990   0.22748
C          C       0.48908   0.38294   0.16494
C          C       0.61706   0.10614   0.16494
C          C       0.89386   0.51092   0.16494
C          C       0.52642   0.41279   0.17949
C          C       0.58721   0.11363   0.17949
C          C       0.88637   0.47358   0.17949
C          C       0.53436   0.44860   0.23302
C          C       0.55140   0.08576   0.23302
C          C       0.91424   0.46564   0.23302
C          C       0.50523   0.45588   0.27882
C          C       0.54412   0.04935   0.27882
C          C       0.95065   0.49477   0.27882
N          N       0.49616   0.33032   0.02492
N          N       0.66968   0.16584   0.02492
N          N       0.83416   0.50384   0.02492
C          C       0.47756   0.34807   0.05539
C          C       0.65193   0.12949   0.05539
C          C       0.87051   0.52244   0.05539
C          C       0.53033   0.30625   0.19161
C          C       0.69375   0.22408   0.19161
C          C       0.77592   0.46967   0.19161
C          C       0.56349   0.30526   0.22388
C          C       0.69474   0.25823   0.22388
C          C       0.74177   0.43651   0.22388
C          C       0.59810   0.33479   0.16000
C          C       0.66521   0.26331   0.16000
C          C       0.73669   0.40190   0.16000
C          C       0.59897   0.36435   0.05932
C          C       0.63565   0.23462   0.05932
C          C       0.76538   0.40103   0.05932
C          C       0.56549   0.36420   0.02151
C          C       0.63580   0.20129   0.02151
C          C       0.79871   0.43451   0.02151
C          C       0.53129   0.33622   0.09533
C          C       0.66378   0.19507   0.09533
C          C       0.80493   0.46871   0.09533
C          C       0.63324   0.33424   0.18799
C          C       0.66576   0.29900   0.18799
C          C       0.70100   0.36676   0.18799
O          O       0.59134   0.58911   0.40358
O          O       0.41089   0.00223   0.40358
O          O       0.99777   0.40866   0.40358
C          C       0.60534   0.56546   0.45735
C          C       0.43454   0.03988   0.45735
C          C       0.96012   0.39466   0.45735
C          C       0.58096   0.52908   0.43030
C          C       0.47092   0.05188   0.43030
C          C       0.94812   0.41904   0.43030
N          N       0.29567   0.65549   0.38811
N          N       0.34451   0.64018   0.38811
N          N       0.35982   0.70433   0.38811
N          N       0.66632   0.36723   0.18355
N          N       0.63277   0.29909   0.18355
N          N       0.70091   0.33368   0.18355
H          H       0.40036   0.64112   0.25291
H          H       0.35888   0.75924   0.25291
H          H       0.24076   0.59964   0.25291
H          H       0.46662   0.66663   0.16717
H          H       0.33337   0.79999   0.16717
H          H       0.20001   0.53338   0.16717
H          H       0.49958   0.76589   0.48646
H          H       0.23411   0.73369   0.48646
H          H       0.26631   0.50042   0.48646
H          H       0.43211   0.74489   0.04329
H          H       0.25511   0.68722   0.04329
H          H       0.31278   0.56789   0.04329
H          H       0.57714   0.74435   0.17596
H          H       0.25565   0.83279   0.17596
H          H       0.16721   0.42286   0.17596
H          H       0.49636   0.66069   0.43099
H          H       0.33931   0.83567   0.43099
H          H       0.16433   0.50364   0.43099
H          H       0.48443   0.59773   0.41748
H          H       0.40227   0.88670   0.41748
H          H       0.11330   0.51557   0.41748
H          H       0.58917   0.63427   0.13183
H          H       0.36573   0.95490   0.13183
H          H       0.04510   0.41083   0.13183
H          H       0.59777   0.69918   0.11242
H          H       0.30082   0.89859   0.11242
H          H       0.10141   0.40223   0.11242
H          H       0.44460   0.42900   0.32811
H          H       0.57100   0.01560   0.32811
H          H       0.98440   0.55540   0.32811
H          H       0.43086   0.36686   0.21984
H          H       0.63314   0.06400   0.21984
H          H       0.93600   0.56914   0.21984
H          H       0.55004   0.41056   0.13750
H          H       0.58944   0.13948   0.13750
H          H       0.86052   0.44996   0.13750
H          H       0.56333   0.47091   0.22515
H          H       0.52909   0.09242   0.22515
H          H       0.90758   0.43667   0.22515
H          H       0.44996   0.33599   0.49302
H          H       0.66401   0.11397   0.49302
H          H       0.88603   0.55004   0.49302
H          H       0.50338   0.28372   0.23946
H          H       0.71628   0.21966   0.23946
H          H       0.78034   0.49662   0.23946
H          H       0.56238   0.28184   0.29986
H          H       0.71816   0.28054   0.29986
H          H       0.71946   0.43762   0.29986
H          H       0.62497   0.38473   0.49233
H          H       0.61527   0.24024   0.49233
H          H       0.75976   0.37503   0.49233
H          H       0.56577   0.38415   0.42353
H          H       0.61585   0.18162   0.42353
H          H       0.81838   0.43423   0.42353
H          H       0.63294   0.57579   0.01755
H          H       0.42421   0.05715   0.01755
H          H       0.94285   0.36706   0.01755
H          H       0.58569   0.50647   0.47148
H          H       0.49353   0.07922   0.47148
H          H       0.92078   0.41431   0.47148
O          O       0.45050   0.47990   0.15859
O          O       0.52010   0.97060   0.15859
O          O       0.02940   0.54950   0.15859
C          C       0.43587   0.50370   0.11687
C          C       0.49630   0.93217   0.11687
C          C       0.06783   0.56413   0.11687
C          C       0.45931   0.53959   0.15699
C          C       0.46041   0.91972   0.15699
C          C       0.08028   0.54069   0.15699
H          H       0.40792   0.49386   0.06074
H          H       0.50614   0.91406   0.06074
H          H       0.08594   0.59208   0.06074
H          H       0.45271   0.56191   0.14569
H          H       0.43809   0.89080   0.14569
H          H       0.10920   0.54729   0.14569
C          C       0.37055   0.67775   0.95943
C          C       0.32225   0.69280   0.95943
C          C       0.30720   0.62945   0.95943
C          C       0.42150   0.66823   0.80772
C          C       0.33177   0.75327   0.80772
C          C       0.24673   0.57850   0.80772
C          C       0.45947   0.68195   0.76367
C          C       0.31805   0.77752   0.76367
C          C       0.22248   0.54053   0.76367
C          C       0.48799   0.71637   0.83518
C          C       0.28363   0.77162   0.83518
C          C       0.22838   0.51201   0.83518
C          C       0.47758   0.73884   0.93458
C          C       0.26116   0.73874   0.93458
C          C       0.26126   0.52242   0.93458
C          C       0.43949   0.72672   0.96761
C          C       0.27328   0.71277   0.96761
C          C       0.28723   0.56051   0.96761
C          C       0.41110   0.69083   0.90930
C          C       0.30917   0.72027   0.90930
C          C       0.27973   0.58890   0.90930
C          C       0.55047   0.72288   0.73161
C          C       0.27712   0.82759   0.73161
C          C       0.17241   0.44953   0.73161
N          N       0.52644   0.73410   0.77154
N          N       0.26590   0.79234   0.77154
N          N       0.20766   0.47356   0.77154
C          C       0.51547   0.65581   0.85180
C          C       0.34419   0.85966   0.85180
C          C       0.14034   0.48453   0.85180
C          C       0.50946   0.61940   0.85177
C          C       0.38060   0.89006   0.85177
C          C       0.10994   0.49054   0.85177
C          C       0.53571   0.61133   0.77370
C          C       0.38867   0.92438   0.77370
C          C       0.07562   0.46429   0.77370
C          C       0.56862   0.64054   0.69398
C          C       0.35946   0.92808   0.69398
C          C       0.07192   0.43138   0.69398
C          C       0.57348   0.67710   0.68437
C          C       0.32290   0.89638   0.68437
C          C       0.10362   0.42652   0.68437
C          C       0.54588   0.68468   0.75721
C          C       0.31532   0.86120   0.75721
C          C       0.13880   0.45412   0.75721
C          C       0.55533   0.56367   0.83792
C          C       0.43633   0.99166   0.83792
C          C       0.00834   0.44467   0.83792
C          C       0.54755   0.52664   0.84997
C          C       0.47336   0.02091   0.84997
C          C       0.97909   0.45245   0.84997
C          C       0.51266   0.49549   0.79375
C          C       0.50451   0.01717   0.79375
C          C       0.98283   0.48734   0.79375
C          C       0.48565   0.50484   0.73257
C          C       0.49516   0.98081   0.73257
C          C       0.01919   0.51435   0.73257
C          C       0.49297   0.54150   0.72892
C          C       0.45850   0.95147   0.72892
C          C       0.04853   0.50703   0.72892
C          C       0.52819   0.57235   0.77757
C          C       0.42765   0.95584   0.77757
C          C       0.04416   0.47181   0.77757
C          C       0.46803   0.42501   0.78687
C          C       0.57499   0.04302   0.78687
C          C       0.95698   0.53197   0.78687
C          C       0.46010   0.38918   0.72748
C          C       0.61082   0.07092   0.72748
C          C       0.92908   0.53990   0.72748
C          C       0.48908   0.38294   0.66494
C          C       0.61706   0.10614   0.66494
C          C       0.89386   0.51092   0.66494
C          C       0.52642   0.41279   0.67949
C          C       0.58721   0.11363   0.67949
C          C       0.88637   0.47358   0.67949
C          C       0.53436   0.44860   0.73302
C          C       0.55140   0.08576   0.73302
C          C       0.91424   0.46564   0.73302
C          C       0.50523   0.45588   0.77882
C          C       0.54412   0.04935   0.77882
C          C       0.95065   0.49477   0.77882
N          N       0.49616   0.33032   0.52492
N          N       0.66968   0.16584   0.52492
N          N       0.83416   0.50384   0.52492
C          C       0.47756   0.34807   0.55539
C          C       0.65193   0.12949   0.55539
C          C       0.87051   0.52244   0.55539
C          C       0.53033   0.30625   0.69161
C          C       0.69375   0.22408   0.69161
C          C       0.77592   0.46967   0.69161
C          C       0.56349   0.30526   0.72388
C          C       0.69474   0.25823   0.72388
C          C       0.74177   0.43651   0.72388
C          C       0.59810   0.33479   0.66000
C          C       0.66521   0.26331   0.66000
C          C       0.73669   0.40190   0.66000
C          C       0.59897   0.36435   0.55932
C          C       0.63565   0.23462   0.55932
C          C       0.76538   0.40103   0.55932
C          C       0.56549   0.36420   0.52151
C          C       0.63580   0.20129   0.52151
C          C       0.79871   0.43451   0.52151
C          C       0.53129   0.33622   0.59533
C          C       0.66378   0.19507   0.59533
C          C       0.80493   0.46871   0.59533
C          C       0.63324   0.33424   0.68799
C          C       0.66576   0.29900   0.68799
C          C       0.70100   0.36676   0.68799
O          O       0.59134   0.58911   0.90358
O          O       0.41089   0.00223   0.90358
O          O       0.99777   0.40866   0.90358
C          C       0.60534   0.56546   0.95735
C          C       0.43454   0.03988   0.95735
C          C       0.96012   0.39466   0.95735
C          C       0.58096   0.52908   0.93030
C          C       0.47092   0.05188   0.93030
C          C       0.94812   0.41904   0.93030
N          N       0.29567   0.65549   0.88811
N          N       0.34451   0.64018   0.88811
N          N       0.35982   0.70433   0.88811
N          N       0.66632   0.36723   0.68355
N          N       0.63277   0.29909   0.68355
N          N       0.70091   0.33368   0.68355
H          H       0.40036   0.64112   0.75291
H          H       0.35888   0.75924   0.75291
H          H       0.24076   0.59964   0.75291
H          H       0.46662   0.66663   0.66717
H          H       0.33337   0.79999   0.66717
H          H       0.20001   0.53338   0.66717
H          H       0.49958   0.76589   0.98646
H          H       0.23411   0.73369   0.98646
H          H       0.26631   0.50042   0.98646
H          H       0.43211   0.74489   0.54329
H          H       0.25511   0.68722   0.54329
H          H       0.31278   0.56789   0.54329
H          H       0.57714   0.74435   0.67596
H          H       0.25565   0.83279   0.67596
H          H       0.16721   0.42286   0.67596
H          H       0.49636   0.66069   0.93099
H          H       0.33931   0.83567   0.93099
H          H       0.16433   0.50364   0.93099
H          H       0.48443   0.59773   0.91748
H          H       0.40227   0.88670   0.91748
H          H       0.11330   0.51557   0.91748
H          H       0.58917   0.63427   0.63183
H          H       0.36573   0.95490   0.63183
H          H       0.04510   0.41083   0.63183
H          H       0.59777   0.69918   0.61242
H          H       0.30082   0.89859   0.61242
H          H       0.10141   0.40223   0.61242
H          H       0.44460   0.42900   0.82811
H          H       0.57100   0.01560   0.82811
H          H       0.98440   0.55540   0.82811
H          H       0.43086   0.36686   0.71984
H          H       0.63314   0.06400   0.71984
H          H       0.93600   0.56914   0.71984
H          H       0.55004   0.41056   0.63749
H          H       0.58944   0.13948   0.63749
H          H       0.86052   0.44996   0.63749
H          H       0.56333   0.47091   0.72515
H          H       0.52909   0.09242   0.72515
H          H       0.90758   0.43667   0.72515
H          H       0.44996   0.33599   0.99302
H          H       0.66401   0.11397   0.99302
H          H       0.88603   0.55004   0.99302
H          H       0.50338   0.28372   0.73946
H          H       0.71628   0.21966   0.73946
H          H       0.78034   0.49662   0.73946
H          H       0.56238   0.28184   0.79986
H          H       0.71816   0.28054   0.79986
H          H       0.71946   0.43762   0.79986
H          H       0.62497   0.38473   0.99233
H          H       0.61527   0.24024   0.99233
H          H       0.75976   0.37503   0.99233
H          H       0.56577   0.38415   0.92353
H          H       0.61585   0.18162   0.92353
H          H       0.81838   0.43423   0.92353
H          H       0.63294   0.57579   0.51755
H          H       0.42421   0.05715   0.51755
H          H       0.94285   0.36706   0.51755
H          H       0.58569   0.50647   0.97148
H          H       0.49353   0.07922   0.97148
H          H       0.92078   0.41431   0.97148
O          O       0.45050   0.47990   0.65858
O          O       0.52010   0.97060   0.65858
O          O       0.02940   0.54950   0.65858
C          C       0.43587   0.50370   0.61687
C          C       0.49630   0.93217   0.61687
C          C       0.06783   0.56413   0.61687
C          C       0.45931   0.53959   0.65699
C          C       0.46041   0.91972   0.65699
C          C       0.08028   0.54069   0.65699
H          H       0.40792   0.49386   0.56074
H          H       0.50614   0.91406   0.56074
H          H       0.08594   0.59208   0.56074
H          H       0.45271   0.56191   0.64569
H          H       0.43809   0.89080   0.64569
H          H       0.10920   0.54729   0.64569
