data_crystal

_cell_length_a    39.29000
_cell_length_b    39.29000
_cell_length_c    9.31800
_cell_angle_alpha 90.00000
_cell_angle_beta  90.00000
_cell_angle_gamma 120.00000

_symmetry_space_group_name_Hall 'P 1'
_symmetry_space_group_name_H-M  'P 1'

loop_
_symmetry_equiv_pos_as_xyz
 'x,y,z'

loop_
_atom_site_label
_atom_site_type_symbol
_atom_site_fract_x
_atom_site_fract_y
_atom_site_fract_z
C          C       0.91411   0.24184   0.39179
C          C       0.75816   0.67227   0.39179
C          C       0.32773   0.08589   0.39179
C          C       0.08589   0.75816   0.89179
C          C       0.24184   0.32773   0.89179
C          C       0.67227   0.91411   0.89179
C          C       0.93619   0.28600   0.35542
C          C       0.71400   0.65019   0.35542
C          C       0.34981   0.06381   0.35542
C          C       0.06381   0.71400   0.85542
C          C       0.28600   0.34981   0.85542
C          C       0.65019   0.93619   0.85542
C          C       0.92402   0.29292   0.20504
C          C       0.70708   0.63110   0.20504
C          C       0.36890   0.07598   0.20504
C          C       0.07598   0.70708   0.70504
C          C       0.29292   0.36890   0.70504
C          C       0.63110   0.92402   0.70504
C          C       0.98081   0.30220   0.36506
C          C       0.69780   0.67861   0.36506
C          C       0.32139   0.01919   0.36506
C          C       0.01919   0.69780   0.86506
C          C       0.30220   0.32139   0.86506
C          C       0.67861   0.98081   0.86506
C          C       0.94118   0.33652   0.16928
C          C       0.66348   0.60466   0.16928
C          C       0.39534   0.05882   0.16928
C          C       0.05882   0.66348   0.66928
C          C       0.33652   0.39534   0.66928
C          C       0.60466   0.94118   0.66928
C          C       0.79304   0.10428   0.42979
C          C       0.89572   0.68876   0.42979
C          C       0.31124   0.20696   0.42979
C          C       0.20696   0.89572   0.92979
C          C       0.10428   0.31124   0.92979
C          C       0.68876   0.79304   0.92979
C          C       0.77990   0.13081   0.39467
C          C       0.86919   0.64909   0.39467
C          C       0.35091   0.22010   0.39467
C          C       0.22010   0.86919   0.89467
C          C       0.13081   0.35091   0.89467
C          C       0.64909   0.77990   0.89467
C          C       0.79095   0.19857   0.35562
C          C       0.80143   0.59238   0.35562
C          C       0.40762   0.20905   0.35562
C          C       0.20905   0.80143   0.85562
C          C       0.19857   0.40762   0.85562
C          C       0.59238   0.79095   0.85562
C          C       0.80623   0.17154   0.38677
C          C       0.82846   0.63469   0.38677
C          C       0.36531   0.19377   0.38677
C          C       0.19377   0.82846   0.88677
C          C       0.17154   0.36531   0.88677
C          C       0.63469   0.80623   0.88677
O          O       0.80949   0.22681   0.27685
O          O       0.77319   0.58268   0.27685
O          O       0.41732   0.19051   0.27685
O          O       0.19051   0.77319   0.77685
O          O       0.22681   0.41732   0.77685
O          O       0.58268   0.80949   0.77685
N          N       0.75670   0.19259   0.41696
N          N       0.80741   0.56411   0.41696
N          N       0.43589   0.24330   0.41696
N          N       0.24330   0.80741   0.91696
N          N       0.19259   0.43589   0.91696
N          N       0.56411   0.75670   0.91696
N          N       0.74367   0.21968   0.39548
N          N       0.78032   0.52399   0.39548
N          N       0.47601   0.25633   0.39548
N          N       0.25633   0.78032   0.89548
N          N       0.21968   0.47601   0.89548
N          N       0.52399   0.74367   0.89548
C          C       0.71250   0.21577   0.45905
C          C       0.78423   0.49673   0.45905
C          C       0.50327   0.28750   0.45905
C          C       0.28750   0.78423   0.95905
C          C       0.21577   0.50327   0.95905
C          C       0.49673   0.71250   0.95905
O          O       0.76746   0.06319   0.44062
O          O       0.93681   0.70427   0.44062
O          O       0.29573   0.23254   0.44062
O          O       0.23254   0.93681   0.94062
O          O       0.06319   0.29573   0.94062
O          O       0.70427   0.76746   0.94062
H          H       0.92392   0.23753   0.49884
H          H       0.76247   0.68639   0.49884
H          H       0.31361   0.07608   0.49884
H          H       0.07608   0.76247   0.99884
H          H       0.23753   0.31361   0.99884
H          H       0.68639   0.92392   0.99884
H          H       0.92110   0.22581   0.30882
H          H       0.77419   0.69529   0.30882
H          H       0.30471   0.07890   0.30882
H          H       0.07890   0.77419   0.80882
H          H       0.22581   0.30471   0.80882
H          H       0.69529   0.92110   0.80882
H          H       0.92802   0.30139   0.43703
H          H       0.69861   0.62663   0.43703
H          H       0.37337   0.07198   0.43703
H          H       0.07198   0.69861   0.93703
H          H       0.30139   0.37337   0.93703
H          H       0.62663   0.92802   0.93703
H          H       0.89145   0.27891   0.19977
H          H       0.72109   0.61254   0.19977
H          H       0.38746   0.10855   0.19977
H          H       0.10855   0.72109   0.69977
H          H       0.27891   0.38746   0.69977
H          H       0.61254   0.89145   0.69977
H          H       0.93312   0.27888   0.12143
H          H       0.72112   0.65424   0.12143
H          H       0.34576   0.06688   0.12143
H          H       0.06688   0.72112   0.62143
H          H       0.27888   0.34576   0.62143
H          H       0.65424   0.93312   0.62143
H          H       0.99069   0.28931   0.27973
H          H       0.71069   0.70138   0.27973
H          H       0.29862   0.00931   0.27973
H          H       0.00931   0.71069   0.77973
H          H       0.28931   0.29862   0.77973
H          H       0.70138   0.99069   0.77973
H          H       0.98860   0.29507   0.47098
H          H       0.70493   0.69353   0.47098
H          H       0.30647   0.01140   0.47098
H          H       0.01140   0.70493   0.97098
H          H       0.29507   0.30647   0.97098
H          H       0.69353   0.98860   0.97098
H          H       0.99716   0.33473   0.35472
H          H       0.66527   0.66243   0.35472
H          H       0.33757   0.00284   0.35472
H          H       0.00284   0.66527   0.85472
H          H       0.33473   0.33757   0.85472
H          H       0.66243   0.99716   0.85472
H          H       0.97351   0.35110   0.15394
H          H       0.64890   0.62241   0.15394
H          H       0.37759   0.02649   0.15394
H          H       0.02649   0.64890   0.65394
H          H       0.35110   0.37759   0.65394
H          H       0.62241   0.97351   0.65394
H          H       0.93440   0.35165   0.25594
H          H       0.64835   0.58275   0.25594
H          H       0.41725   0.06560   0.25594
H          H       0.06560   0.64835   0.75594
H          H       0.35165   0.41725   0.75594
H          H       0.58275   0.93440   0.75594
H          H       0.92803   0.33938   0.06766
H          H       0.66062   0.58865   0.06766
H          H       0.41135   0.07197   0.06766
H          H       0.07197   0.66062   0.56766
H          H       0.33938   0.41135   0.56766
H          H       0.58865   0.92803   0.56766
C          C       0.67725   0.30296   0.42201
C          C       0.69704   0.37429   0.42201
C          C       0.62571   0.32275   0.42201
C          C       0.32275   0.69704   0.92201
C          C       0.30296   0.62571   0.92201
C          C       0.37429   0.67725   0.92201
C          C       0.72024   0.27790   0.34961
C          C       0.72210   0.44234   0.34961
C          C       0.55766   0.27976   0.34961
C          C       0.27976   0.72210   0.84961
C          C       0.27790   0.55766   0.84961
C          C       0.44234   0.72024   0.84961
C          C       0.70884   0.30637   0.33980
C          C       0.69363   0.40247   0.33980
C          C       0.59753   0.29116   0.33980
C          C       0.29116   0.69363   0.83980
C          C       0.30637   0.59753   0.83980
C          C       0.40247   0.70884   0.83980
C          C       0.65690   0.27020   0.51253
C          C       0.72980   0.38670   0.51253
C          C       0.61330   0.34310   0.51253
C          C       0.34310   0.72980   0.01253
C          C       0.27020   0.61330   0.01253
C          C       0.38670   0.65690   0.01253
C          C       0.66818   0.24168   0.52195
C          C       0.75832   0.42650   0.52195
C          C       0.57350   0.33182   0.52195
C          C       0.33182   0.75832   0.02195
C          C       0.24168   0.57350   0.02195
C          C       0.42650   0.66818   0.02195
C          C       0.70013   0.24542   0.44173
C          C       0.75458   0.45471   0.44173
C          C       0.54529   0.29987   0.44173
C          C       0.29987   0.75458   0.94173
C          C       0.24542   0.54529   0.94173
C          C       0.45471   0.70013   0.94173
H          H       0.74916   0.12013   0.37258
H          H       0.87987   0.62903   0.37258
H          H       0.37097   0.25084   0.37258
H          H       0.25084   0.87987   0.87258
H          H       0.12013   0.37097   0.87258
H          H       0.62903   0.74916   0.87258
H          H       0.74129   0.16894   0.48724
H          H       0.83106   0.57235   0.48724
H          H       0.42765   0.25871   0.48724
H          H       0.25871   0.83106   0.98724
H          H       0.16894   0.42765   0.98724
H          H       0.57235   0.74129   0.98724
H          H       0.69582   0.19099   0.53017
H          H       0.80901   0.50483   0.53017
H          H       0.49517   0.30418   0.53017
H          H       0.30418   0.80901   0.03017
H          H       0.19099   0.49517   0.03017
H          H       0.50483   0.69582   0.03017
H          H       0.74495   0.28151   0.28612
H          H       0.71849   0.46344   0.28612
H          H       0.53656   0.25505   0.28612
H          H       0.25505   0.71849   0.78612
H          H       0.28151   0.53656   0.78612
H          H       0.46344   0.74495   0.78612
H          H       0.72479   0.33126   0.26877
H          H       0.66874   0.39353   0.26877
H          H       0.60647   0.27521   0.26877
H          H       0.27521   0.66874   0.76877
H          H       0.33126   0.60647   0.76877
H          H       0.39353   0.72479   0.76877
H          H       0.63274   0.26711   0.57814
H          H       0.73289   0.36563   0.57814
H          H       0.63437   0.36726   0.57814
H          H       0.36726   0.73289   0.07814
H          H       0.26711   0.63437   0.07814
H          H       0.36563   0.63274   0.07814
H          H       0.65231   0.21696   0.59389
H          H       0.78304   0.43535   0.59389
H          H       0.56465   0.34769   0.59389
H          H       0.34769   0.78304   0.09389
H          H       0.21696   0.56465   0.09389
H          H       0.43535   0.65231   0.09389
C          C       0.72874   0.04643   0.38131
C          C       0.95357   0.68231   0.38131
C          C       0.31769   0.27126   0.38131
C          C       0.27126   0.95357   0.88131
C          C       0.04643   0.31769   0.88131
C          C       0.68231   0.72874   0.88131
C          C       0.70770   0.00123   0.39070
C          C       0.99877   0.70647   0.39070
C          C       0.29353   0.29230   0.39070
C          C       0.29230   0.99877   0.89070
C          C       0.00123   0.29353   0.89070
C          C       0.70647   0.70770   0.89070
C          C       0.73033   0.98506   0.30474
C          C       0.01494   0.74527   0.30474
C          C       0.25473   0.26967   0.30474
C          C       0.26967   0.01494   0.80474
C          C       0.98506   0.25473   0.80474
C          C       0.74527   0.73033   0.80474
C          C       0.66508   0.98361   0.33748
C          C       0.01639   0.68147   0.33748
C          C       0.31853   0.33492   0.33748
C          C       0.33492   0.01639   0.83748
C          C       0.98361   0.31853   0.83748
C          C       0.68147   0.66508   0.83748
C          C       0.71419   0.94102   0.32832
C          C       0.05898   0.77317   0.32832
C          C       0.22683   0.28581   0.32832
C          C       0.28581   0.05898   0.82832
C          C       0.94102   0.22683   0.82832
C          C       0.77317   0.71419   0.82832
C          C       0.84678   0.18635   0.40922
C          C       0.81365   0.66043   0.40922
C          C       0.33957   0.15322   0.40922
C          C       0.15322   0.81365   0.90922
C          C       0.18635   0.33957   0.90922
C          C       0.66043   0.84678   0.90922
C          C       0.85973   0.15992   0.44775
C          C       0.84008   0.69981   0.44775
C          C       0.30019   0.14027   0.44775
C          C       0.14027   0.84008   0.94775
C          C       0.15992   0.30019   0.94775
C          C       0.69981   0.85973   0.94775
C          C       0.84837   0.09285   0.50127
C          C       0.90715   0.75552   0.50127
C          C       0.24448   0.15163   0.50127
C          C       0.15163   0.90715   0.00127
C          C       0.09285   0.24448   0.00127
C          C       0.75552   0.84837   0.00127
C          C       0.83325   0.11938   0.46022
C          C       0.88062   0.71387   0.46022
C          C       0.28613   0.16675   0.46022
C          C       0.16675   0.88062   0.96022
C          C       0.11938   0.28613   0.96022
C          C       0.71387   0.83325   0.96022
O          O       0.83530   0.06091   0.44259
O          O       0.93909   0.77439   0.44259
O          O       0.22561   0.16470   0.44259
O          O       0.16470   0.93909   0.94259
O          O       0.06091   0.22561   0.94259
O          O       0.77439   0.83530   0.94259
N          N       0.87711   0.10398   0.60320
N          N       0.89602   0.77313   0.60320
N          N       0.22687   0.12289   0.60320
N          N       0.12289   0.89602   0.10320
N          N       0.10398   0.22687   0.10320
N          N       0.77313   0.87711   0.10320
N          N       0.89360   0.08018   0.63243
N          N       0.91982   0.81342   0.63243
N          N       0.18658   0.10640   0.63243
N          N       0.10640   0.91982   0.13243
N          N       0.08018   0.18658   0.13243
N          N       0.81342   0.89360   0.13243
C          C       0.92213   0.09053   0.72334
C          C       0.90947   0.83160   0.72334
C          C       0.16840   0.07787   0.72334
C          C       0.07787   0.90947   0.22334
C          C       0.09053   0.16840   0.22334
C          C       0.83160   0.92213   0.22334
O          O       0.87261   0.22733   0.39549
O          O       0.77267   0.64528   0.39549
O          O       0.35472   0.12739   0.39549
O          O       0.12739   0.77267   0.89549
O          O       0.22733   0.35472   0.89549
O          O       0.64528   0.87261   0.89549
H          H       0.71151   0.05683   0.44372
H          H       0.94317   0.65468   0.44372
H          H       0.34532   0.28849   0.44372
H          H       0.28849   0.94317   0.94372
H          H       0.05683   0.34532   0.94372
H          H       0.65468   0.71151   0.94372
H          H       0.73043   0.05536   0.26692
H          H       0.94464   0.67507   0.26692
H          H       0.32493   0.26957   0.26692
H          H       0.26957   0.94464   0.76692
H          H       0.05536   0.32493   0.76692
H          H       0.67507   0.73043   0.76692
H          H       0.70695   0.99325   0.50562
H          H       0.00675   0.71370   0.50562
H          H       0.28630   0.29305   0.50562
H          H       0.29305   0.00675   0.00562
H          H       0.99325   0.28630   0.00562
H          H       0.71370   0.70695   0.00562
H          H       0.76168   0.00055   0.33868
H          H       0.99945   0.76113   0.33868
H          H       0.23887   0.23832   0.33868
H          H       0.23832   0.99945   0.83868
H          H       0.00055   0.23887   0.83868
H          H       0.76113   0.76168   0.83868
H          H       0.72965   0.99077   0.18829
H          H       0.00923   0.73888   0.18829
H          H       0.26112   0.27035   0.18829
H          H       0.27035   0.00923   0.68829
H          H       0.99077   0.26112   0.68829
H          H       0.73888   0.72965   0.68829
H          H       0.66442   0.98903   0.22077
H          H       0.01097   0.67539   0.22077
H          H       0.32461   0.33558   0.22077
H          H       0.33558   0.01097   0.72077
H          H       0.98903   0.32461   0.72077
H          H       0.67539   0.66442   0.72077
H          H       0.64996   0.99699   0.39577
H          H       0.00301   0.65297   0.39577
H          H       0.34703   0.35004   0.39577
H          H       0.35004   0.00301   0.89577
H          H       0.99699   0.34703   0.89577
H          H       0.65297   0.64996   0.89577
H          H       0.64812   0.95145   0.35774
H          H       0.04855   0.69667   0.35774
H          H       0.30333   0.35188   0.35774
H          H       0.35188   0.04855   0.85774
H          H       0.95145   0.30333   0.85774
H          H       0.69667   0.64812   0.85774
H          H       0.68458   0.92344   0.27946
H          H       0.07656   0.76114   0.27946
H          H       0.23886   0.31542   0.27946
H          H       0.31542   0.07656   0.77946
H          H       0.92344   0.23886   0.77946
H          H       0.76114   0.68458   0.77946
H          H       0.71255   0.93430   0.44476
H          H       0.06570   0.77825   0.44476
H          H       0.22175   0.28745   0.44476
H          H       0.28745   0.06570   0.94476
H          H       0.93430   0.22175   0.94476
H          H       0.77825   0.71255   0.94476
H          H       0.73406   0.93218   0.27635
H          H       0.06782   0.80188   0.27635
H          H       0.19812   0.26594   0.27635
H          H       0.26594   0.06782   0.77635
H          H       0.93218   0.19812   0.77635
H          H       0.80188   0.73406   0.77635
C          C       0.97880   0.02154   0.77019
C          C       0.97846   0.95726   0.77019
C          C       0.04274   0.02120   0.77019
C          C       0.02120   0.97846   0.27019
C          C       0.02154   0.04274   0.27019
C          C       0.95726   0.97880   0.27019
C          C       0.92432   0.02859   0.68053
C          C       0.97141   0.89573   0.68053
C          C       0.10427   0.07568   0.68053
C          C       0.07568   0.97141   0.18053
C          C       0.02859   0.10427   0.18053
C          C       0.89573   0.92432   0.18053
C          C       0.94354   0.00690   0.69210
C          C       0.99310   0.93664   0.69210
C          C       0.06336   0.05646   0.69210
C          C       0.05646   0.99310   0.19210
C          C       0.00690   0.06336   0.19210
C          C       0.93664   0.94354   0.19210
C          C       0.99385   0.05827   0.83847
C          C       0.94173   0.93558   0.83847
C          C       0.06442   0.00615   0.83847
C          C       0.00615   0.94173   0.33847
C          C       0.05827   0.06442   0.33847
C          C       0.93558   0.99385   0.33847
C          C       0.97488   0.08025   0.82543
C          C       0.91975   0.89463   0.82543
C          C       0.10537   0.02512   0.82543
C          C       0.02512   0.91975   0.32543
C          C       0.08025   0.10537   0.32543
C          C       0.89463   0.97488   0.32543
C          C       0.94025   0.06582   0.74476
C          C       0.93418   0.87443   0.74476
C          C       0.12557   0.05975   0.74476
C          C       0.05975   0.93418   0.24476
C          C       0.06582   0.12557   0.24476
C          C       0.87443   0.94025   0.24476
H          H       0.89059   0.17052   0.46715
H          H       0.82948   0.72007   0.46715
H          H       0.27993   0.10941   0.46715
H          H       0.10941   0.82948   0.96715
H          H       0.17052   0.27993   0.96715
H          H       0.72007   0.89059   0.96715
H          H       0.88714   0.13048   0.65867
H          H       0.86952   0.75666   0.65867
H          H       0.24334   0.11286   0.65867
H          H       0.11286   0.86952   0.15867
H          H       0.13048   0.24334   0.15867
H          H       0.75666   0.88714   0.15867
H          H       0.93407   0.11844   0.77921
H          H       0.88156   0.81563   0.77921
H          H       0.18437   0.06593   0.77921
H          H       0.06593   0.88156   0.27921
H          H       0.11844   0.18437   0.27921
H          H       0.81563   0.93407   0.27921
H          H       0.89744   0.01657   0.61853
H          H       0.98343   0.88087   0.61853
H          H       0.11913   0.10256   0.61853
H          H       0.10256   0.98343   0.11853
H          H       0.01657   0.11913   0.11853
H          H       0.88087   0.89744   0.11853
H          H       0.93124   0.97900   0.63663
H          H       0.02100   0.95224   0.63663
H          H       0.04776   0.06876   0.63663
H          H       0.06876   0.02100   0.13663
H          H       0.97900   0.04776   0.13663
H          H       0.95224   0.93124   0.13663
H          H       0.02096   0.07042   0.89889
H          H       0.92958   0.95054   0.89889
H          H       0.04946   0.97904   0.89889
H          H       0.97904   0.92958   0.39889
H          H       0.07042   0.04946   0.39889
H          H       0.95054   0.02096   0.39889
H          H       0.98774   0.10895   0.87556
H          H       0.89105   0.87879   0.87556
H          H       0.12121   0.01226   0.87556
H          H       0.01226   0.89105   0.37556
H          H       0.10895   0.12121   0.37556
H          H       0.87879   0.98774   0.37556
N          N       0.66667   0.33334   0.41705
N          N       0.33333   0.66666   0.91705
N          N       0.00000   0.00000   0.77522
N          N       0.00000   0.00000   0.27522
