data_crystal

_cell_length_a    25.59840
_cell_length_b    25.59840
_cell_length_c    10.66890
_cell_angle_alpha 90.00000
_cell_angle_beta  90.00000
_cell_angle_gamma 120.00000

_space_group_name_Hall 'P 1'
_space_group_name_H-M_alt  'P 1'

loop_
_symmetry_equiv_pos_as_xyz
 'x,y,z'

loop_
_atom_site_label
_atom_site_type_symbol
_atom_site_fract_x
_atom_site_fract_y
_atom_site_fract_z
C          C       0.98932   0.06346   0.01203
C          C       0.93654   0.92586   0.34536
C          C       0.07414   0.01068   0.67870
H          H       0.10893   0.12059   0.99222
H          H       0.87941   0.98834   0.32555
H          H       0.01166   0.89107   0.65889
C          C       0.12785   0.05119   0.05043
C          C       0.94881   0.07666   0.38376
C          C       0.92334   0.87215   0.71710
C          C       0.22366   0.15358   0.06275
C          C       0.84642   0.07008   0.39608
C          C       0.92992   0.77634   0.72942
C          C       0.28392   0.18684   0.09884
C          C       0.81316   0.09708   0.43217
C          C       0.90292   0.71608   0.76551
C          C       0.31383   0.15852   0.15035
C          C       0.84148   0.15531   0.48368
C          C       0.84469   0.68617   0.81702
H          H       0.30740   0.23502   0.08294
H          H       0.76498   0.07238   0.41627
H          H       0.92762   0.69260   0.74961
H          H       0.20347   0.17788   0.02230
H          H       0.82212   0.02559   0.35563
H          H       0.97441   0.79653   0.68897
C          C       0.47642   0.20183   0.21577
C          C       0.79817   0.27459   0.54910
C          C       0.72541   0.52358   0.88244
C          C       0.41536   0.16792   0.18575
C          C       0.83208   0.24744   0.51908
C          C       0.75256   0.58464   0.85242
C          C       0.37834   0.19404   0.18864
C          C       0.80596   0.18430   0.52197
C          C       0.81570   0.62166   0.85531
C          C       0.40384   0.25452   0.22740
C          C       0.74548   0.14932   0.56073
C          C       0.85068   0.59616   0.89407
C          C       0.46512   0.28862   0.25615
C          C       0.71138   0.17650   0.58948
C          C       0.82350   0.53488   0.92282
H          H       0.48358   0.33542   0.28270
H          H       0.66458   0.14816   0.61603
H          H       0.85184   0.51642   0.94937
H          H       0.39817   0.12192   0.15533
H          H       0.87808   0.27625   0.48866
H          H       0.72375   0.60183   0.82200
H          H       0.50384   0.18069   0.20825
H          H       0.81931   0.32315   0.54158
H          H       0.67685   0.49616   0.87492
C          C       0.50225   0.26295   0.24808
C          C       0.73705   0.23930   0.58141
C          C       0.76070   0.49775   0.91475
H          H       0.37664   0.27579   0.23602
H          H       0.72421   0.10085   0.56935
H          H       0.89915   0.62336   0.90269
N          N       0.59511   0.36171   0.25707
N          N       0.63829   0.23340   0.59040
N          N       0.76660   0.40489   0.92374
C          C       0.56820   0.30062   0.26303
C          C       0.69938   0.26758   0.59636
C          C       0.73242   0.43180   0.92970
H          H       0.10763   0.00380   0.07040
H          H       0.99620   0.10383   0.40373
H          H       0.89617   0.89237   0.73707
H          H       0.19707   0.01001   0.13644
H          H       0.98999   0.18706   0.46977
H          H       0.81294   0.80293   0.80311
C          C       0.09033   0.07312   0.01075
C          C       0.92688   0.01721   0.34408
C          C       0.98279   0.90967   0.67742
C          C       0.18966   0.08688   0.07662
C          C       0.91312   0.10278   0.40995
C          C       0.89722   0.81034   0.74329
C          C       0.28007   0.09185   0.16218
C          C       0.90815   0.18822   0.49551
C          C       0.81178   0.71993   0.82885
C          C       0.22022   0.05853   0.12431
C          C       0.94147   0.16169   0.45764
C          C       0.83831   0.77978   0.79098
C          C       0.02366   0.03524   0.00537
C          C       0.96476   0.98842   0.33870
C          C       0.01158   0.97634   0.67204
H          H       0.30051   0.06810   0.20487
H          H       0.93190   0.23241   0.53820
H          H       0.76759   0.69949   0.87154
H          H       0.80498   0.93988   0.02647
H          H       0.06012   0.86510   0.35980
H          H       0.13490   0.19502   0.69314
H          H       0.81476   0.88452   0.94793
H          H       0.11548   0.93024   0.28126
H          H       0.06976   0.18524   0.61460
H          H       0.85228   0.99985   0.80317
H          H       0.00015   0.85243   0.13650
H          H       0.14757   0.14772   0.46984
H          H       0.77425   0.94237   0.81815
H          H       0.05763   0.83188   0.15148
H          H       0.16812   0.22575   0.48482
H          H       0.82759   0.92468   0.75042
H          H       0.07532   0.90291   0.08375
H          H       0.09709   0.17241   0.41709
C          C       0.83264   0.93365   0.95431
C          C       0.06635   0.89899   0.28764
C          C       0.10101   0.16736   0.62098
C          C       0.82143   0.95162   0.82411
C          C       0.04838   0.86981   0.15744
C          C       0.13019   0.17857   0.49078
N          N       0.89743   0.96787   0.99026
N          N       0.03213   0.92956   0.32359
N          N       0.07044   0.10257   0.65693
H          H       0.84556   0.03947   0.99152
H          H       0.96053   0.80609   0.32485
H          H       0.19391   0.15444   0.65819
C          C       0.91202   0.11443   0.09517
C          C       0.88557   0.79759   0.42850
C          C       0.20241   0.08798   0.76184
C          C       0.81095   0.11044   0.10189
C          C       0.88956   0.70051   0.43522
C          C       0.29949   0.18905   0.76856
C          C       0.77814   0.13764   0.13787
C          C       0.86236   0.64050   0.47120
C          C       0.35950   0.22186   0.80454
C          C       0.80659   0.19494   0.19290
C          C       0.80506   0.61165   0.52623
C          C       0.38835   0.19341   0.85957
H          H       0.73021   0.11403   0.11880
H          H       0.88597   0.61618   0.45213
H          H       0.38382   0.26979   0.78547
H          H       0.78590   0.06609   0.06112
H          H       0.93391   0.71981   0.39445
H          H       0.28019   0.21410   0.72779
C          C       0.76326   0.31499   0.23536
C          C       0.68501   0.44827   0.56869
C          C       0.55173   0.23674   0.90203
C          C       0.79763   0.28746   0.21501
C          C       0.71254   0.51017   0.54834
C          C       0.48983   0.20237   0.88168
C          C       0.77145   0.22464   0.22573
C          C       0.77536   0.54681   0.55906
C          C       0.45319   0.22855   0.89240
C          C       0.71071   0.19033   0.26278
C          C       0.80967   0.52038   0.59611
C          C       0.47962   0.28929   0.92945
C          C       0.67604   0.21776   0.28108
C          C       0.78224   0.45828   0.61441
C          C       0.54172   0.32396   0.94775
H          H       0.62899   0.18995   0.30644
H          H       0.81005   0.43904   0.63977
H          H       0.56096   0.37101   0.97311
H          H       0.84393   0.31531   0.18500
H          H       0.68469   0.52862   0.51833
H          H       0.47138   0.15607   0.85167
H          H       0.78441   0.36329   0.22198
H          H       0.63671   0.42112   0.55531
H          H       0.57888   0.21559   0.88865
C          C       0.70170   0.28021   0.26502
C          C       0.71979   0.42149   0.59835
C          C       0.57851   0.29830   0.93169
H          H       0.68966   0.14212   0.27691
H          H       0.85788   0.54754   0.61024
H          H       0.45246   0.31034   0.94358
N          N       0.60294   0.27439   0.26893
N          N       0.72561   0.32855   0.60226
N          N       0.67145   0.39706   0.93560
C          C       0.66395   0.30861   0.27053
C          C       0.69139   0.35534   0.60386
C          C       0.64466   0.33605   0.93720
H          H       0.95792   0.13691   0.12936
H          H       0.86309   0.82101   0.46269
H          H       0.17899   0.04208   0.79603
H          H       0.95373   0.22239   0.19597
H          H       0.77761   0.73134   0.52930
H          H       0.26866   0.04627   0.86264
C          C       0.89053   0.06062   0.02804
C          C       0.93938   0.82991   0.36137
C          C       0.17009   0.10947   0.69471
C          C       0.87723   0.14122   0.12325
C          C       0.85878   0.73601   0.45658
C          C       0.26399   0.12277   0.78992
C          C       0.87276   0.22627   0.21196
C          C       0.77373   0.64649   0.54529
C          C       0.35351   0.12724   0.87863
C          C       0.90558   0.19858   0.17837
C          C       0.80142   0.70700   0.51170
C          C       0.29300   0.09442   0.84504
C          C       0.92593   0.02958   0.00855
C          C       0.97042   0.89635   0.34188
C          C       0.10365   0.07407   0.67522
H          H       0.89620   0.27012   0.25620
H          H       0.72988   0.62608   0.58953
H          H       0.37392   0.10380   0.92287
I          I       0.70083   0.93582   0.20593
I          I       0.06418   0.76501   0.53926
I          I       0.23499   0.29917   0.87260
C          C       0.99361   0.97235   0.00165
C          C       0.02765   0.02126   0.33498
C          C       0.97874   0.00639   0.66832
H          H       0.92645   0.85209   0.98649
H          H       0.14791   0.07436   0.31982
H          H       0.92564   0.07355   0.65316
C          C       0.85509   0.84241   0.10865
C          C       0.15759   0.01268   0.44198
C          C       0.98732   0.14491   0.77532
C          C       0.86129   0.74680   0.10882
C          C       0.25320   0.11449   0.44215
C          C       0.88551   0.13871   0.77549
C          C       0.83358   0.68552   0.13400
C          C       0.31448   0.14806   0.46733
C          C       0.85194   0.16642   0.80067
C          C       0.77597   0.65467   0.18760
C          C       0.34533   0.12130   0.52093
C          C       0.87870   0.22403   0.85427
H          H       0.85742   0.66229   0.10811
H          H       0.33771   0.19513   0.44144
H          H       0.80487   0.14258   0.77478
H          H       0.90591   0.76789   0.06871
H          H       0.23211   0.13802   0.40204
H          H       0.86198   0.09409   0.73538
C          C       0.65251   0.49105   0.21998
C          C       0.50895   0.16146   0.55331
C          C       0.83854   0.34749   0.88665
C          C       0.68166   0.55342   0.20205
C          C       0.44658   0.12824   0.53538
C          C       0.87176   0.31834   0.86872
C          C       0.74495   0.58839   0.20717
C          C       0.41161   0.15656   0.54050
C          C       0.84344   0.25505   0.87384
C          C       0.77825   0.55925   0.22950
C          C       0.44075   0.21900   0.56283
C          C       0.78100   0.22175   0.89617
C          C       0.74925   0.49716   0.24717
C          C       0.50284   0.25209   0.58050
C          C       0.74791   0.25075   0.91384
H          H       0.77660   0.47657   0.26475
H          H       0.52343   0.30003   0.59808
H          H       0.69997   0.22340   0.93142
H          H       0.65449   0.57389   0.18164
H          H       0.42611   0.08060   0.51497
H          H       0.91940   0.34551   0.84831
H          H       0.60376   0.46533   0.21444
H          H       0.53467   0.13843   0.54777
H          H       0.86157   0.39624   0.88111
C          C       0.68608   0.46234   0.24278
C          C       0.53766   0.22374   0.57611
C          C       0.77626   0.31392   0.90945
H          H       0.82689   0.58418   0.23553
H          H       0.41582   0.24271   0.56886
H          H       0.75729   0.17311   0.90220
N          N       0.69006   0.36936   0.26454
N          N       0.63064   0.32070   0.59787
N          N       0.67930   0.30994   0.93121
C          C       0.65616   0.39632   0.25803
C          C       0.60368   0.25984   0.59136
C          C       0.74016   0.34384   0.92470
H          H       0.83429   0.86643   0.14900
H          H       0.13357   0.96786   0.48233
H          H       0.03214   0.16571   0.81567
H          H       0.75156   0.77551   0.22693
H          H       0.22449   0.97605   0.56026
H          H       0.02395   0.24844   0.89360
C          C       0.90332   0.87366   0.02607
C          C       0.12634   0.02966   0.35940
C          C       0.97034   0.09668   0.69274
C          C       0.83033   0.78127   0.13834
C          C       0.21873   0.04906   0.47167
C          C       0.95094   0.16967   0.80501
C          C       0.74665   0.68977   0.22439
C          C       0.31023   0.05688   0.55772
C          C       0.94312   0.25335   0.89106
C          C       0.77453   0.75137   0.19981
C          C       0.24863   0.02316   0.53314
C          C       0.97684   0.22547   0.86648
C          C       0.93056   0.93907   0.00268
C          C       0.06093   0.99149   0.33601
C          C       0.00851   0.06944   0.66935
H          H       0.70392   0.66834   0.27336
H          H       0.33166   0.03558   0.60669
H          H       0.96442   0.29608   0.94003
H          H       0.88792   0.90052   0.35210
H          H       0.09948   0.98740   0.68543
H          H       0.01260   0.11208   0.01877
H          H       0.93009   0.98170   0.66686
H          H       0.01830   0.94839   0.00019
H          H       0.05161   0.06991   0.33353
