data_crystal

_cell_length_a    17.83920
_cell_length_b    17.83920
_cell_length_c    10.28300
_cell_angle_alpha 90.00000
_cell_angle_beta  90.00000
_cell_angle_gamma 120.00000

_symmetry_space_group_name_Hall 'P 1'
_symmetry_space_group_name_H-M  'P 1'

loop_
_symmetry_equiv_pos_as_xyz
 'x,y,z'

loop_
_atom_site_label
_atom_site_type_symbol
_atom_site_fract_x
_atom_site_fract_y
_atom_site_fract_z
C          C       0.94181   0.04760   0.11366
C          C       0.95240   0.89421   0.44699
C          C       0.10579   0.05819   0.78033
H          H       0.11196   0.12370   0.08516
H          H       0.87630   0.98826   0.41849
H          H       0.01174   0.88804   0.75183
C          C       0.13453   0.02743   0.15905
C          C       0.97257   0.10710   0.49238
C          C       0.89290   0.86547   0.82572
C          C       0.08363   0.05639   0.11291
C          C       0.94361   0.02724   0.44624
C          C       0.97276   0.91637   0.77958
C          C       0.22557   0.08542   0.19412
C          C       0.91458   0.14015   0.52745
C          C       0.85985   0.77443   0.86079
C          C       0.25662   0.17234   0.22918
C          C       0.82766   0.08428   0.56251
C          C       0.91572   0.74338   0.89585
C          C       0.34052   0.22272   0.27606
C          C       0.77728   0.11780   0.60939
C          C       0.88220   0.65948   0.94273
C          C       0.39454   0.18704   0.28998
C          C       0.81296   0.20750   0.62331
C          C       0.79250   0.60546   0.95665
C          C       0.36332   0.10012   0.25541
C          C       0.89988   0.26320   0.58874
C          C       0.73680   0.63668   0.92208
C          C       0.27963   0.04995   0.20750
C          C       0.95005   0.22968   0.54083
C          C       0.77032   0.72037   0.87417
C          C       0.98836   0.00424   0.11411
C          C       0.99576   0.98412   0.44744
C          C       0.01588   0.01164   0.78078
H          H       0.10841   0.96015   0.18404
H          H       0.03985   0.14826   0.51737
H          H       0.85174   0.89159   0.85071
H          H       0.25644   0.98278   0.18315
H          H       0.01722   0.27366   0.51648
H          H       0.72634   0.74356   0.84982
H          H       0.36272   0.28938   0.30219
H          H       0.71062   0.07334   0.63552
H          H       0.92666   0.63728   0.96886
H          H       0.40357   0.07083   0.26442
H          H       0.92917   0.33274   0.59775
H          H       0.66726   0.59643   0.93109
H          H       0.21579   0.20109   0.22539
H          H       0.79891   0.01470   0.55872
H          H       0.98530   0.78421   0.89206
N          N       0.51909   0.32812   0.34525
N          N       0.67188   0.19097   0.67858
N          N       0.80903   0.48091   0.01192
C          C       0.48462   0.24139   0.33258
C          C       0.75861   0.24323   0.66591
C          C       0.75677   0.51538   0.99925
C          C       0.71337   0.86150   0.11702
C          C       0.13850   0.85187   0.45035
C          C       0.14813   0.28663   0.78369
C          C       0.66184   0.86598   0.23264
C          C       0.13402   0.79586   0.56597
C          C       0.20414   0.33816   0.89931
N          N       0.80799   0.91293   0.13423
N          N       0.08707   0.89506   0.46756
N          N       0.10494   0.19201   0.80090
H          H       0.74101   0.02415   0.10683
H          H       0.97585   0.71686   0.44016
H          H       0.28314   0.25899   0.77350
C          C       0.83740   0.11841   0.22553
C          C       0.88159   0.71899   0.55886
C          C       0.28101   0.16260   0.89220
C          C       0.80574   0.05037   0.14526
C          C       0.94963   0.75537   0.47859
C          C       0.24463   0.19426   0.81193
C          C       0.78379   0.15325   0.27385
C          C       0.84675   0.63054   0.60718
C          C       0.36946   0.21621   0.94052
C          C       0.69605   0.09801   0.30251
C          C       0.90199   0.59804   0.63584
C          C       0.40196   0.30395   0.96918
C          C       0.64449   0.13183   0.34107
C          C       0.86817   0.51266   0.67440
C          C       0.48734   0.35551   0.00774
C          C       0.68000   0.22154   0.35182
C          C       0.77846   0.45846   0.68515
C          C       0.54154   0.32000   0.01849
C          C       0.76948   0.27640   0.33415
C          C       0.72360   0.49308   0.66748
C          C       0.50692   0.23052   0.00082
C          C       0.82121   0.24213   0.29629
C          C       0.75787   0.57908   0.62962
C          C       0.42092   0.17879   0.96296
C          C       0.85148   0.00176   0.12577
C          C       0.99824   0.84972   0.45910
C          C       0.15028   0.14852   0.79244
H          H       0.90316   0.14774   0.26095
H          H       0.85226   0.75542   0.59428
H          H       0.24458   0.09684   0.92762
H          H       0.88962   0.28526   0.27926
H          H       0.71474   0.60436   0.61259
H          H       0.39564   0.11038   0.94593
H          H       0.57620   0.08783   0.35774
H          H       0.91217   0.48837   0.69107
H          H       0.51163   0.42380   0.02441
H          H       0.79891   0.34590   0.34372
H          H       0.65410   0.45301   0.67705
H          H       0.54699   0.20109   0.01039
H          H       0.66696   0.02873   0.29425
H          H       0.97127   0.63823   0.62758
H          H       0.36177   0.33304   0.96092
N          N       0.53675   0.20674   0.34203
N          N       0.79326   0.33001   0.67537
N          N       0.66999   0.46325   0.00870
C          C       0.62247   0.25760   0.36507
C          C       0.74240   0.36487   0.69840
C          C       0.63513   0.37753   0.03174
Br         Br      0.57015   0.03234   0.00834
Br         Br      0.96766   0.53781   0.34167
Br         Br      0.46219   0.42985   0.67501
H          H       0.69307   0.87693   0.02327
H          H       0.12307   0.81614   0.35660
H          H       0.18386   0.30693   0.68994
H          H       0.62286   0.89558   0.20200
H          H       0.10442   0.72728   0.53533
H          H       0.27272   0.37714   0.86867
H          H       0.70484   0.90331   0.31480
H          H       0.09669   0.80153   0.64813
H          H       0.19847   0.29516   0.98147
H          H       0.61609   0.79924   0.26611
H          H       0.20076   0.81685   0.59944
H          H       0.18315   0.38391   0.93278
C          C       0.94351   0.91457   0.12948
C          C       0.08543   0.02894   0.46281
C          C       0.97106   0.05649   0.79615
H          H       0.83824   0.74156   0.13192
H          H       0.25844   0.09668   0.46525
H          H       0.90332   0.16176   0.79859
C          C       0.75597   0.74244   0.27516
C          C       0.25756   0.01353   0.60849
C          C       0.98647   0.24403   0.94183
C          C       0.81335   0.77836   0.17927
C          C       0.22164   0.03499   0.51260
C          C       0.96501   0.18665   0.84594
C          C       0.71936   0.65095   0.30856
C          C       0.34905   0.06841   0.64189
C          C       0.93159   0.28064   0.97523
C          C       0.76954   0.61067   0.30019
C          C       0.38933   0.15887   0.63352
C          C       0.84113   0.23046   0.96686
C          C       0.73269   0.52300   0.32539
C          C       0.47700   0.20969   0.65872
C          C       0.79031   0.26731   0.99206
C          C       0.64475   0.47365   0.35776
C          C       0.52635   0.17110   0.69109
C          C       0.82890   0.35525   0.02443
C          C       0.59486   0.51412   0.36886
C          C       0.48588   0.08074   0.70219
C          C       0.91926   0.40514   0.03553
C          C       0.63249   0.60278   0.34636
C          C       0.39722   0.02971   0.67969
C          C       0.97029   0.36751   0.01303
C          C       0.85394   0.87042   0.14595
C          C       0.12958   0.98352   0.47928
C          C       0.01648   0.14606   0.81262
H          H       0.73467   0.78008   0.32964
H          H       0.21992   0.95459   0.66297
H          H       0.04541   0.26533   0.99631
H          H       0.59310   0.63315   0.35360
H          H       0.36685   0.95995   0.68693
H          H       0.04005   0.40690   0.02027
H          H       0.77273   0.49355   0.31543
H          H       0.50645   0.27918   0.64876
H          H       0.72082   0.22727   0.98210
H          H       0.52668   0.47709   0.39252
H          H       0.52291   0.04959   0.72585
H          H       0.95041   0.47332   0.05919
H          H       0.83739   0.64659   0.27442
H          H       0.35341   0.19080   0.60775
H          H       0.80920   0.16261   0.94109
N          N       0.65619   0.34394   0.37688
N          N       0.65606   0.31225   0.71021
N          N       0.68775   0.34381   0.04355
C          C       0.60489   0.37957   0.36791
C          C       0.62043   0.22532   0.70124
C          C       0.77468   0.39511   0.03458
H          H       0.12192   0.09883   0.46540
H          H       0.90117   0.02309   0.79873
H          H       0.97691   0.87808   0.13207
H          H       0.97636   0.11747   0.10769
H          H       0.88253   0.85889   0.44102
H          H       0.14111   0.02364   0.77436
