data_crystal

_cell_length_a    30.36780
_cell_length_b    30.36780
_cell_length_c    7.10204
_cell_angle_alpha 90.00000
_cell_angle_beta  90.00000
_cell_angle_gamma 120.00000

_symmetry_space_group_name_Hall 'P 1'
_symmetry_space_group_name_H-M  'P 1'

loop_
_symmetry_equiv_pos_as_xyz
 'x,y,z'

loop_
_atom_site_label
_atom_site_type_symbol
_atom_site_fract_x
_atom_site_fract_y
_atom_site_fract_z
H          H       0.58947   0.06331   0.00000
H          H       0.93669   0.52616   0.00000
H          H       0.47384   0.41053   0.00000
H          H       0.41053   0.93669   0.00000
H          H       0.06331   0.47384   0.00000
H          H       0.52616   0.58947   0.00000
H          H       0.26804   0.69046   0.00000
H          H       0.30954   0.57758   0.00000
H          H       0.42242   0.73196   0.00000
H          H       0.73196   0.30954   0.00000
H          H       0.69046   0.42242   0.00000
H          H       0.57758   0.26804   0.00000
N          N       0.19106   0.59971   0.00000
N          N       0.40029   0.59135   0.00000
N          N       0.40865   0.80894   0.00000
N          N       0.80894   0.40029   0.00000
N          N       0.59971   0.40865   0.00000
N          N       0.59135   0.19106   0.00000
C          C       0.29560   0.68040   0.00000
C          C       0.31960   0.61520   0.00000
C          C       0.38480   0.70440   0.00000
C          C       0.70440   0.31960   0.00000
C          C       0.68040   0.38480   0.00000
C          C       0.61520   0.29560   0.00000
C          C       0.22949   0.58953   0.00000
C          C       0.41047   0.63996   0.00000
C          C       0.36004   0.77051   0.00000
C          C       0.77051   0.41047   0.00000
C          C       0.58953   0.36004   0.00000
C          C       0.63996   0.22949   0.00000
C          C       0.46154   0.51475   0.00000
C          C       0.48525   0.94679   0.00000
C          C       0.05321   0.53846   0.00000
C          C       0.53846   0.48525   0.00000
C          C       0.51475   0.05321   0.00000
C          C       0.94679   0.46154   0.00000
C          C       0.51405   0.55145   0.00000
C          C       0.44855   0.96260   0.00000
C          C       0.03740   0.48595   0.00000
C          C       0.48595   0.44855   0.00000
C          C       0.55145   0.03740   0.00000
C          C       0.96260   0.51405   0.00000
C          C       0.28097   0.62825   0.00000
C          C       0.37175   0.65272   0.00000
C          C       0.34728   0.71903   0.00000
C          C       0.71903   0.37175   0.00000
C          C       0.62825   0.34728   0.00000
C          C       0.65272   0.28097   0.00000
H          H       0.22059   0.55225   0.00000
H          H       0.44775   0.66834   0.00000
H          H       0.33166   0.77941   0.00000
H          H       0.77941   0.44775   0.00000
H          H       0.55225   0.33166   0.00000
H          H       0.66834   0.22059   0.00000
C          C       0.44853   0.46295   0.00000
C          C       0.53705   0.98558   0.00000
C          C       0.01442   0.55147   0.00000
C          C       0.55147   0.53705   0.00000
C          C       0.46295   0.01442   0.00000
C          C       0.98558   0.44853   0.00000
H          H       0.41120   0.43467   0.00000
H          H       0.56533   0.97653   0.00000
H          H       0.02347   0.58880   0.00000
H          H       0.58880   0.56533   0.00000
H          H       0.43467   0.02347   0.00000
H          H       0.97653   0.41120   0.00000
N          N       0.43464   0.57782   0.00000
N          N       0.42218   0.85682   0.00000
N          N       0.14318   0.56536   0.00000
N          N       0.56536   0.42218   0.00000
N          N       0.57782   0.14318   0.00000
N          N       0.85682   0.43464   0.00000
C          C       0.42334   0.52862   0.00000
C          C       0.47138   0.89472   0.00000
C          C       0.10528   0.57666   0.00000
C          C       0.57666   0.47138   0.00000
C          C       0.52862   0.10528   0.00000
C          C       0.89472   0.42334   0.00000
H          H       0.46990   0.60425   0.00000
H          H       0.39575   0.86565   0.00000
H          H       0.13435   0.53010   0.00000
H          H       0.53010   0.39575   0.00000
H          H       0.60425   0.13435   0.00000
H          H       0.86565   0.46990   0.00000
O          O       0.37735   0.49458   0.00000
O          O       0.50542   0.88277   0.00000
O          O       0.11723   0.62265   0.00000
O          O       0.62265   0.50542   0.00000
O          O       0.49458   0.11723   0.00000
O          O       0.88277   0.37735   0.00000
H          H       0.58947   0.06331   0.50000
H          H       0.93669   0.52616   0.50000
H          H       0.47384   0.41053   0.50000
H          H       0.41053   0.93669   0.50000
H          H       0.06331   0.47384   0.50000
H          H       0.52616   0.58947   0.50000
H          H       0.26804   0.69046   0.50000
H          H       0.30954   0.57758   0.50000
H          H       0.42242   0.73196   0.50000
H          H       0.73196   0.30954   0.50000
H          H       0.69046   0.42242   0.50000
H          H       0.57758   0.26804   0.50000
N          N       0.19106   0.59971   0.50000
N          N       0.40029   0.59135   0.50000
N          N       0.40865   0.80894   0.50000
N          N       0.80894   0.40029   0.50000
N          N       0.59971   0.40865   0.50000
N          N       0.59135   0.19106   0.50000
C          C       0.29560   0.68040   0.50000
C          C       0.31960   0.61520   0.50000
C          C       0.38480   0.70440   0.50000
C          C       0.70440   0.31960   0.50000
C          C       0.68040   0.38480   0.50000
C          C       0.61520   0.29560   0.50000
C          C       0.22949   0.58953   0.50000
C          C       0.41047   0.63996   0.50000
C          C       0.36004   0.77051   0.50000
C          C       0.77051   0.41047   0.50000
C          C       0.58953   0.36004   0.50000
C          C       0.63996   0.22949   0.50000
C          C       0.46154   0.51475   0.50000
C          C       0.48525   0.94679   0.50000
C          C       0.05321   0.53846   0.50000
C          C       0.53846   0.48525   0.50000
C          C       0.51475   0.05321   0.50000
C          C       0.94679   0.46154   0.50000
C          C       0.51405   0.55145   0.50000
C          C       0.44855   0.96260   0.50000
C          C       0.03740   0.48595   0.50000
C          C       0.48595   0.44855   0.50000
C          C       0.55145   0.03740   0.50000
C          C       0.96260   0.51405   0.50000
C          C       0.28097   0.62825   0.50000
C          C       0.37175   0.65272   0.50000
C          C       0.34728   0.71903   0.50000
C          C       0.71903   0.37175   0.50000
C          C       0.62825   0.34728   0.50000
C          C       0.65272   0.28097   0.50000
H          H       0.22059   0.55225   0.50000
H          H       0.44775   0.66834   0.50000
H          H       0.33166   0.77941   0.50000
H          H       0.77941   0.44775   0.50000
H          H       0.55225   0.33166   0.50000
H          H       0.66834   0.22059   0.50000
C          C       0.44853   0.46295   0.50000
C          C       0.53705   0.98558   0.50000
C          C       0.01442   0.55147   0.50000
C          C       0.55147   0.53705   0.50000
C          C       0.46295   0.01442   0.50000
C          C       0.98558   0.44853   0.50000
H          H       0.41120   0.43467   0.50000
H          H       0.56533   0.97653   0.50000
H          H       0.02347   0.58880   0.50000
H          H       0.58880   0.56533   0.50000
H          H       0.43467   0.02347   0.50000
H          H       0.97653   0.41120   0.50000
N          N       0.43464   0.57782   0.50000
N          N       0.42218   0.85682   0.50000
N          N       0.14318   0.56536   0.50000
N          N       0.56536   0.42218   0.50000
N          N       0.57782   0.14318   0.50000
N          N       0.85682   0.43464   0.50000
C          C       0.42334   0.52862   0.50000
C          C       0.47138   0.89472   0.50000
C          C       0.10528   0.57666   0.50000
C          C       0.57666   0.47138   0.50000
C          C       0.52862   0.10528   0.50000
C          C       0.89472   0.42334   0.50000
H          H       0.46990   0.60425   0.50000
H          H       0.39575   0.86565   0.50000
H          H       0.13435   0.53010   0.50000
H          H       0.53010   0.39575   0.50000
H          H       0.60425   0.13435   0.50000
H          H       0.86565   0.46990   0.50000
O          O       0.37735   0.49458   0.50000
O          O       0.50542   0.88277   0.50000
O          O       0.11723   0.62265   0.50000
O          O       0.62265   0.50542   0.50000
O          O       0.49458   0.11723   0.50000
O          O       0.88277   0.37735   0.50000
