data_crystal

_cell_length_a    30.62380
_cell_length_b    30.59310
_cell_length_c    6.93540
_cell_angle_alpha 88.53230
_cell_angle_beta  91.23650
_cell_angle_gamma 119.89100

_space_group_name_Hall 'P 1'
_space_group_name_H-M_alt  'P 1'

loop_
_symmetry_equiv_pos_as_xyz
 'x,y,z'

loop_
_atom_site_label
_atom_site_type_symbol
_atom_site_fract_x
_atom_site_fract_y
_atom_site_fract_z
H          H       0.29430   0.21150   0.16625
H          H       0.32870   0.30400   0.14010
C          C       0.79830   0.15590   0.12015
C          C       0.76650   0.17620   0.11325
C          C       0.77840   0.10410   0.12150
H          H       0.78250   0.21700   0.11220
C          C       0.69470   0.09260   0.10895
C          C       0.72680   0.07230   0.11585
C          C       0.71490   0.14490   0.10765
H          H       0.68990   0.16080   0.10210
N          N       0.61420   0.07870   0.09830
N          N       0.64260   0.05760   0.10320
H          H       0.83900   0.18090   0.12450
H          H       0.27900   0.70630   0.06650
N          N       0.20010   0.61750   0.06255
C          C       0.30600   0.69270   0.07005
C          C       0.23440   0.60380   0.06260
C          C       0.46800   0.52200   0.09330
C          C       0.51970   0.55660   0.08435
C          C       0.28820   0.64080   0.06855
H          H       0.22340   0.56350   0.05870
C          C       0.45270   0.47090   0.10350
H          H       0.41260   0.44320   0.11155
N          N       0.43830   0.58380   0.08740
C          C       0.42960   0.53730   0.09150
H          H       0.47420   0.61420   0.08620
O          O       0.37980   0.49970   0.09390
H          H       0.73680   0.31280   0.07550
N          N       0.81480   0.40280   0.06735
C          C       0.70930   0.32560   0.07810
C          C       0.77970   0.41520   0.07620
C          C       0.53960   0.48880   0.09400
C          C       0.48740   0.45390   0.10420
C          C       0.72620   0.37730   0.07840
H          H       0.78980   0.45520   0.08245
C          C       0.55420   0.54000   0.08470
H          H       0.59430   0.56770   0.07710
N          N       0.57240   0.42940   0.09175
C          C       0.57910   0.47520   0.09180
H          H       0.53660   0.39840   0.09460
O          O       0.62850   0.51420   0.08820
H          H       0.53310   0.59700   0.07665
H          H       0.80350   0.08840   0.12690
H          H       0.71090   0.03150   0.11685
C          C       0.85740   0.64540   0.23630
C          C       0.83780   0.59450   0.20030
C          C       0.90910   0.67780   0.23905
H          H       0.79710   0.56930   0.19815
C          C       0.92180   0.60820   0.17055
C          C       0.94130   0.65950   0.20620
C          C       0.86950   0.57570   0.16750
H          H       0.85420   0.53570   0.13945
N          N       0.93660   0.54380   0.11085
N          N       0.95720   0.59240   0.14035
H          H       0.83200   0.66000   0.26250
H          H       0.30950   0.58340   0.07150
N          N       0.39840   0.59310   0.08455
C          C       0.32300   0.62380   0.07280
C          C       0.41200   0.64100   0.08280
C          C       0.49370   0.95580   0.08765
C          C       0.45930   0.97340   0.08120
C          C       0.37480   0.65780   0.07870
H          H       0.45220   0.67030   0.08425
C          C       0.54480   0.99120   0.09335
H          H       0.57230   0.97840   0.09865
N          N       0.43160   0.86470   0.08230
C          C       0.47810   0.90210   0.08840
H          H       0.40140   0.87050   0.07660
O          O       0.51550   0.88940   0.09585
H          H       0.70340   0.43360   0.08265
N          N       0.61330   0.42180   0.08850
C          C       0.69060   0.39330   0.08215
C          C       0.60100   0.37420   0.08870
C          C       0.52740   0.06070   0.08585
C          C       0.56210   0.04300   0.09240
C          C       0.63900   0.35860   0.08510
H          H       0.56110   0.34420   0.09155
C          C       0.47620   0.02460   0.08055
H          H       0.44860   0.03740   0.07555
N          N       0.58700   0.15270   0.08460
C          C       0.54120   0.11390   0.08450
H          H       0.61800   0.14770   0.08595
O          O       0.50240   0.12470   0.08240
H          H       0.41890   0.94680   0.07675
H          H       0.92420   0.71770   0.26725
H          H       0.98200   0.68470   0.20820
C          C       0.36740   0.21770   0.16565
C          C       0.41910   0.24990   0.15720
C          C       0.33490   0.23700   0.15950
H          H       0.44440   0.23440   0.16200
C          C       0.40600   0.32110   0.13650
C          C       0.35390   0.28850   0.14490
C          C       0.43870   0.30140   0.14275
H          H       0.47930   0.32680   0.13605
N          N       0.47160   0.40190   0.11705
N          N       0.42240   0.37310   0.12200
H          H       0.35230   0.17710   0.17710
H          H       0.43200   0.73640   0.08455
N          N       0.42220   0.81540   0.08295
C          C       0.39160   0.70950   0.08010
C          C       0.37430   0.78130   0.07660
C          C       0.05980   0.54820   0.05940
C          C       0.04260   0.49680   0.03545
C          C       0.35760   0.72750   0.07580
H          H       0.34510   0.79250   0.07160
C          C       0.02420   0.56320   0.08245
H          H       0.03670   0.60300   0.10135
N          N       0.15100   0.57770   0.05720
C          C       0.11330   0.58640   0.06165
H          H       0.14540   0.54170   0.05140
O          O       0.12560   0.63630   0.07095
H          H       0.58290   0.27960   0.08755
N          N       0.59470   0.20140   0.08345
C          C       0.62310   0.30700   0.08485
C          C       0.64230   0.23650   0.08220
C          C       0.95520   0.47660   0.05830
C          C       0.97250   0.52840   0.08330
C          C       0.65790   0.29010   0.08155
H          H       0.67220   0.22630   0.08185
C          C       0.99160   0.46220   0.03480
H          H       0.97910   0.42240   0.01535
N          N       0.86330   0.44370   0.06825
C          C       0.90230   0.43710   0.05735
H          H       0.86820   0.47950   0.07880
O          O       0.89180   0.38770   0.04290
H          H       0.06940   0.48360   0.01645
H          H       0.29430   0.21150   0.66625
H          H       0.32870   0.30400   0.64010
C          C       0.79830   0.15590   0.62015
C          C       0.76650   0.17620   0.61325
C          C       0.77840   0.10410   0.62150
H          H       0.78250   0.21700   0.61220
C          C       0.69470   0.09260   0.60895
C          C       0.72680   0.07230   0.61585
C          C       0.71490   0.14490   0.60765
H          H       0.68990   0.16080   0.60210
N          N       0.61420   0.07870   0.59830
N          N       0.64260   0.05760   0.60320
H          H       0.83900   0.18090   0.62450
H          H       0.27900   0.70630   0.56650
N          N       0.20010   0.61750   0.56255
C          C       0.30600   0.69270   0.57005
C          C       0.23440   0.60380   0.56260
C          C       0.46800   0.52200   0.59330
C          C       0.51970   0.55660   0.58435
C          C       0.28820   0.64080   0.56855
H          H       0.22340   0.56350   0.55870
C          C       0.45270   0.47090   0.60350
H          H       0.41260   0.44320   0.61155
N          N       0.43830   0.58380   0.58740
C          C       0.42960   0.53730   0.59150
H          H       0.47420   0.61420   0.58620
O          O       0.37980   0.49970   0.59390
H          H       0.73680   0.31280   0.57550
N          N       0.81480   0.40280   0.56735
C          C       0.70930   0.32560   0.57810
C          C       0.77970   0.41520   0.57620
C          C       0.53960   0.48880   0.59400
C          C       0.48740   0.45390   0.60420
C          C       0.72620   0.37730   0.57840
H          H       0.78980   0.45520   0.58245
C          C       0.55420   0.54000   0.58470
H          H       0.59430   0.56770   0.57710
N          N       0.57240   0.42940   0.59175
C          C       0.57910   0.47520   0.59180
H          H       0.53660   0.39840   0.59460
O          O       0.62850   0.51420   0.58820
H          H       0.53310   0.59700   0.57665
H          H       0.80350   0.08840   0.62690
H          H       0.71090   0.03150   0.61685
C          C       0.85740   0.64540   0.73630
C          C       0.83780   0.59450   0.70030
C          C       0.90910   0.67780   0.73905
H          H       0.79710   0.56930   0.69815
C          C       0.92180   0.60820   0.67055
C          C       0.94130   0.65950   0.70620
C          C       0.86950   0.57570   0.66750
H          H       0.85420   0.53570   0.63945
N          N       0.93660   0.54380   0.61085
N          N       0.95720   0.59240   0.64035
H          H       0.83200   0.66000   0.76250
H          H       0.30950   0.58340   0.57150
N          N       0.39840   0.59310   0.58455
C          C       0.32300   0.62380   0.57280
C          C       0.41200   0.64100   0.58280
C          C       0.49370   0.95580   0.58765
C          C       0.45930   0.97340   0.58120
C          C       0.37480   0.65780   0.57870
H          H       0.45220   0.67030   0.58425
C          C       0.54480   0.99120   0.59335
H          H       0.57230   0.97840   0.59865
N          N       0.43160   0.86470   0.58230
C          C       0.47810   0.90210   0.58840
H          H       0.40140   0.87050   0.57660
O          O       0.51550   0.88940   0.59585
H          H       0.70340   0.43360   0.58265
N          N       0.61330   0.42180   0.58850
C          C       0.69060   0.39330   0.58215
C          C       0.60100   0.37420   0.58870
C          C       0.52740   0.06070   0.58585
C          C       0.56210   0.04300   0.59240
C          C       0.63900   0.35860   0.58510
H          H       0.56110   0.34420   0.59155
C          C       0.47620   0.02460   0.58055
H          H       0.44860   0.03740   0.57555
N          N       0.58700   0.15270   0.58460
C          C       0.54120   0.11390   0.58450
H          H       0.61800   0.14770   0.58595
O          O       0.50240   0.12470   0.58240
H          H       0.41890   0.94680   0.57675
H          H       0.92420   0.71770   0.76725
H          H       0.98200   0.68470   0.70820
C          C       0.36740   0.21770   0.66565
C          C       0.41910   0.24990   0.65720
C          C       0.33490   0.23700   0.65950
H          H       0.44440   0.23440   0.66200
C          C       0.40600   0.32110   0.63650
C          C       0.35390   0.28850   0.64490
C          C       0.43870   0.30140   0.64275
H          H       0.47930   0.32680   0.63605
N          N       0.47160   0.40190   0.61705
N          N       0.42240   0.37310   0.62200
H          H       0.35230   0.17710   0.67710
H          H       0.43200   0.73640   0.58455
N          N       0.42220   0.81540   0.58295
C          C       0.39160   0.70950   0.58010
C          C       0.37430   0.78130   0.57660
C          C       0.05980   0.54820   0.55940
C          C       0.04260   0.49680   0.53545
C          C       0.35760   0.72750   0.57580
H          H       0.34510   0.79250   0.57160
C          C       0.02420   0.56320   0.58245
H          H       0.03670   0.60300   0.60135
N          N       0.15100   0.57770   0.55720
C          C       0.11330   0.58640   0.56165
H          H       0.14540   0.54170   0.55140
O          O       0.12560   0.63630   0.57095
H          H       0.58290   0.27960   0.58755
N          N       0.59470   0.20140   0.58345
C          C       0.62310   0.30700   0.58485
C          C       0.64230   0.23650   0.58220
C          C       0.95520   0.47660   0.55830
C          C       0.97250   0.52840   0.58330
C          C       0.65790   0.29010   0.58155
H          H       0.67220   0.22630   0.58185
C          C       0.99160   0.46220   0.53480
H          H       0.97910   0.42240   0.51535
N          N       0.86330   0.44370   0.56825
C          C       0.90230   0.43710   0.55735
H          H       0.86820   0.47950   0.57880
O          O       0.89180   0.38770   0.54290
H          H       0.06940   0.48360   0.51645
