data_crystal

_cell_length_a    48.82080
_cell_length_b    45.65090
_cell_length_c    7.73292
_cell_angle_alpha 90.00000
_cell_angle_beta  90.00000
_cell_angle_gamma 90.00000

_symmetry_space_group_name_Hall 'P 1'
_symmetry_space_group_name_H-M  'P 1'

loop_
_symmetry_equiv_pos_as_xyz
 'x,y,z'

loop_
_atom_site_label
_atom_site_type_symbol
_atom_site_fract_x
_atom_site_fract_y
_atom_site_fract_z
C          C       0.68556   0.34214   0.25008
C          C       0.70702   0.32275   0.25011
C          C       0.70303   0.29200   0.25000
C          C       0.67554   0.28245   0.24985
C          C       0.65408   0.30200   0.24987
C          C       0.65846   0.33229   0.24997
H          H       0.68920   0.36551   0.25013
H          H       0.72748   0.33126   0.25022
H          H       0.67118   0.25938   0.24974
H          H       0.63335   0.29373   0.24976
C          C       0.72597   0.27148   0.25005
C          C       0.75400   0.28002   0.25005
C          C       0.72311   0.24039   0.25005
N          N       0.69878   0.22632   0.25006
N          N       0.73751   0.19153   0.25009
S          S       0.70474   0.19174   0.25008
C          C       0.63574   0.35234   0.24994
H          H       0.61542   0.34232   0.24993
N          N       0.63963   0.38031   0.24997
C          C       0.61835   0.40023   0.25000
C          C       0.62585   0.42978   0.24988
C          C       0.59025   0.39449   0.25022
C          C       0.60679   0.45189   0.24987
H          H       0.64742   0.43483   0.24980
C          C       0.57127   0.41691   0.25033
H          H       0.58282   0.37216   0.25035
C          C       0.57825   0.44698   0.25009
H          H       0.61513   0.47372   0.24967
H          H       0.55042   0.40976   0.25072
C          C       0.55922   0.47258   0.25006
C          C       0.52993   0.47272   0.24989
C          C       0.51415   0.44704   0.24962
H          H       0.52371   0.42599   0.24929
C          C       0.18562   0.84227   0.24993
C          C       0.20711   0.82293   0.24996
C          C       0.20315   0.79217   0.25004
C          C       0.17568   0.78257   0.25006
C          C       0.15419   0.80206   0.24998
C          C       0.15853   0.83236   0.24997
H          H       0.18920   0.86565   0.24987
H          H       0.22756   0.83149   0.24996
H          H       0.17139   0.75948   0.25011
H          H       0.13347   0.79371   0.24996
C          C       0.22608   0.77164   0.25006
C          C       0.25411   0.78016   0.25005
C          C       0.22321   0.74055   0.25004
N          N       0.19888   0.72649   0.25002
N          N       0.23757   0.69168   0.25005
S          S       0.20481   0.69192   0.25000
C          C       0.13580   0.85239   0.25006
H          H       0.11549   0.84238   0.25012
N          N       0.13968   0.88036   0.25009
C          C       0.11836   0.90025   0.25007
C          C       0.12585   0.92981   0.25017
C          C       0.09027   0.89448   0.24988
C          C       0.10678   0.95189   0.25017
H          H       0.14741   0.93489   0.25029
C          C       0.07129   0.91690   0.24973
H          H       0.08283   0.87216   0.24976
C          C       0.07824   0.94697   0.24992
H          H       0.11509   0.97373   0.25034
H          H       0.05043   0.90976   0.24937
C          C       0.05918   0.97255   0.24991
C          C       0.02990   0.97270   0.25009
C          C       0.01413   0.94701   0.25030
H          H       0.02367   0.92595   0.25062
C          C       0.31458   0.65759   0.25001
C          C       0.29317   0.67706   0.25002
C          C       0.29724   0.70779   0.24999
C          C       0.32472   0.71727   0.24997
C          C       0.34614   0.69765   0.24997
C          C       0.34170   0.66738   0.24999
H          H       0.31086   0.63424   0.25001
H          H       0.27268   0.66861   0.25005
H          H       0.32913   0.74035   0.24990
H          H       0.36690   0.70587   0.24997
C          C       0.27428   0.72837   0.25000
C          C       0.24628   0.71984   0.25004
C          C       0.27716   0.75942   0.25001
N          N       0.30151   0.77350   0.24998
N          N       0.26278   0.80830   0.25005
S          S       0.29554   0.80808   0.24999
C          C       0.36440   0.64728   0.25001
H          H       0.38471   0.65731   0.25011
N          N       0.36057   0.61932   0.24993
C          C       0.38199   0.59950   0.24997
C          C       0.37461   0.56993   0.24997
C          C       0.41004   0.60539   0.25003
C          C       0.39377   0.54793   0.25004
H          H       0.35307   0.56476   0.24989
C          C       0.42914   0.58306   0.25012
H          H       0.41736   0.62775   0.24999
C          C       0.42229   0.55298   0.25010
H          H       0.38551   0.52607   0.25004
H          H       0.44997   0.59030   0.25022
C          C       0.44143   0.52743   0.25008
C          C       0.47069   0.52728   0.25000
C          C       0.48645   0.55297   0.24984
H          H       0.47685   0.57401   0.24969
C          C       0.81457   0.15748   0.24995
C          C       0.79311   0.17689   0.24997
C          C       0.79713   0.20764   0.25006
C          C       0.82460   0.21718   0.25009
C          C       0.84606   0.19761   0.25005
C          C       0.84166   0.16733   0.25001
H          H       0.81092   0.13411   0.24985
H          H       0.77264   0.16838   0.24992
H          H       0.82893   0.24027   0.25013
H          H       0.86679   0.20591   0.25005
C          C       0.77417   0.22822   0.25008
C          C       0.74618   0.21970   0.25008
C          C       0.77704   0.25927   0.25006
N          N       0.80138   0.27335   0.25006
N          N       0.76268   0.30817   0.25001
S          S       0.79545   0.30793   0.25002
C          C       0.86440   0.14728   0.25001
H          H       0.88470   0.15733   0.24999
N          N       0.86059   0.11932   0.25009
C          C       0.88201   0.09950   0.25008
C          C       0.87461   0.06993   0.24988
C          C       0.91007   0.10538   0.25022
C          C       0.89376   0.04792   0.24981
H          H       0.85306   0.06477   0.24975
C          C       0.92914   0.08303   0.25022
H          H       0.91742   0.12773   0.25038
C          C       0.92227   0.05296   0.25002
H          H       0.88549   0.02606   0.24957
H          H       0.94998   0.09024   0.25035
C          C       0.94140   0.02740   0.25006
C          C       0.97066   0.02726   0.25001
C          C       0.98643   0.05295   0.25003
H          H       0.97683   0.07398   0.25005
C          C       0.31460   0.34239   0.25001
C          C       0.29318   0.32292   0.24996
C          C       0.29726   0.29219   0.24998
C          C       0.32474   0.28268   0.25003
C          C       0.34616   0.30231   0.25009
C          C       0.34171   0.33259   0.25006
H          H       0.31087   0.36575   0.25001
H          H       0.27269   0.33138   0.24990
H          H       0.32915   0.25960   0.25003
H          H       0.36693   0.29408   0.25016
C          C       0.27429   0.27161   0.24996
C          C       0.24629   0.28014   0.25000
C          C       0.27716   0.24056   0.24997
N          N       0.30150   0.22647   0.25002
N          N       0.26276   0.19169   0.25004
S          S       0.29552   0.19189   0.25007
C          C       0.36442   0.35269   0.25001
H          H       0.38474   0.34267   0.25001
N          N       0.36060   0.38065   0.24999
C          C       0.38201   0.40049   0.24999
C          C       0.37462   0.43006   0.24993
C          C       0.41007   0.39462   0.25011
C          C       0.39377   0.45208   0.24995
H          H       0.35307   0.43522   0.24987
C          C       0.42916   0.41697   0.25019
H          H       0.41741   0.37227   0.25018
C          C       0.42228   0.44704   0.25006
H          H       0.38550   0.47395   0.24985
H          H       0.44999   0.40973   0.25039
C          C       0.44141   0.47260   0.25005
C          C       0.47068   0.47274   0.24995
C          C       0.48645   0.44705   0.24969
H          H       0.47684   0.42602   0.24946
C          C       0.81456   0.84251   0.25007
C          C       0.79310   0.82311   0.25007
C          C       0.79713   0.79236   0.25000
C          C       0.82459   0.78281   0.24990
C          C       0.84605   0.80237   0.24993
C          C       0.84166   0.83265   0.25002
H          H       0.81090   0.86588   0.25010
H          H       0.77263   0.83162   0.25011
H          H       0.82891   0.75972   0.24979
H          H       0.86678   0.79406   0.24986
C          C       0.77417   0.77177   0.25003
C          C       0.74618   0.78029   0.25002
C          C       0.77704   0.74072   0.25004
N          N       0.80138   0.72665   0.25005
N          N       0.76267   0.69182   0.25000
S          S       0.79545   0.69207   0.25002
C          C       0.86439   0.85270   0.25002
H          H       0.88469   0.84264   0.24998
N          N       0.86059   0.88066   0.25003
C          C       0.88201   0.90048   0.25001
C          C       0.87462   0.93005   0.24997
C          C       0.91007   0.89461   0.25000
C          C       0.89377   0.95206   0.24998
H          H       0.85307   0.93522   0.24990
C          C       0.92915   0.91696   0.25002
H          H       0.91743   0.87226   0.24998
C          C       0.92228   0.94703   0.25003
H          H       0.88550   0.97392   0.24988
H          H       0.94998   0.90974   0.25001
C          C       0.94141   0.97258   0.25006
C          C       0.97067   0.97272   0.25004
C          C       0.98642   0.94702   0.25017
H          H       0.97682   0.92599   0.25027
C          C       0.68557   0.65783   0.25005
C          C       0.70702   0.67722   0.25005
C          C       0.70302   0.70798   0.25001
C          C       0.67554   0.71754   0.24999
C          C       0.65408   0.69799   0.24997
C          C       0.65846   0.66769   0.24999
H          H       0.68922   0.63447   0.25009
H          H       0.72750   0.66873   0.25006
H          H       0.67119   0.74062   0.24998
H          H       0.63335   0.70628   0.24995
C          C       0.72596   0.72850   0.25001
C          C       0.75400   0.71997   0.25001
C          C       0.72311   0.75958   0.25001
N          N       0.69878   0.77365   0.24999
N          N       0.73750   0.80845   0.25004
S          S       0.70474   0.80823   0.25001
C          C       0.63575   0.64764   0.24998
H          H       0.61544   0.65766   0.24991
N          N       0.63964   0.61967   0.25000
C          C       0.61835   0.59976   0.25002
C          C       0.62585   0.57020   0.24993
C          C       0.59026   0.60550   0.25017
C          C       0.60680   0.54810   0.24989
H          H       0.64742   0.56514   0.24985
C          C       0.57128   0.58307   0.25023
H          H       0.58283   0.62782   0.25029
C          C       0.57825   0.55300   0.25006
H          H       0.61512   0.52626   0.24974
H          H       0.55043   0.59023   0.25045
C          C       0.55921   0.52741   0.25007
C          C       0.52992   0.52728   0.24995
C          C       0.51416   0.55297   0.24980
H          H       0.52372   0.57402   0.24963
C          C       0.18561   0.15773   0.24999
C          C       0.20710   0.17707   0.24999
C          C       0.20312   0.20784   0.24999
C          C       0.17565   0.21745   0.25001
C          C       0.15416   0.19795   0.24999
C          C       0.15851   0.16765   0.24999
H          H       0.18919   0.13434   0.25004
H          H       0.22755   0.16850   0.25002
H          H       0.17136   0.24055   0.25007
H          H       0.13345   0.20630   0.25002
C          C       0.22606   0.22835   0.24999
C          C       0.25410   0.21983   0.24999
C          C       0.22322   0.25944   0.25000
N          N       0.19890   0.27351   0.25009
N          N       0.23760   0.30830   0.25006
S          S       0.20484   0.30808   0.25013
C          C       0.13578   0.14761   0.25004
H          H       0.11546   0.15761   0.25012
N          N       0.13965   0.11964   0.25001
C          C       0.11835   0.09972   0.25001
C          C       0.12585   0.07016   0.25022
C          C       0.09026   0.10546   0.24978
C          C       0.10679   0.04806   0.25022
H          H       0.14741   0.06508   0.25043
C          C       0.07128   0.08303   0.24969
H          H       0.08281   0.12778   0.24962
C          C       0.07825   0.05297   0.24992
H          H       0.11511   0.02621   0.25050
H          H       0.05042   0.09017   0.24942
C          C       0.05920   0.02739   0.24987
C          C       0.02991   0.02726   0.24998
C          C       0.01413   0.05294   0.25002
H          H       0.02369   0.07399   0.25005
C          C       0.57151   0.50000   0.25023
H          H       0.59326   0.49999   0.25052
C          C       0.51514   0.50000   0.24996
C          C       0.07148   0.99997   0.24967
H          H       0.09322   0.99998   0.24929
C          C       0.01512   0.99999   0.25000
C          C       0.42913   0.50002   0.25011
H          H       0.40739   0.50001   0.25016
C          C       0.48547   0.50000   0.24999
C          C       0.92912   0.00000   0.25015
H          H       0.90738   0.00000   0.25033
C          C       0.98545   0.00000   0.25004
C          C       0.68556   0.34214   0.75008
C          C       0.70702   0.32275   0.75011
C          C       0.70303   0.29200   0.75000
C          C       0.67554   0.28245   0.74985
C          C       0.65408   0.30200   0.74987
C          C       0.65846   0.33229   0.74997
H          H       0.68920   0.36551   0.75014
H          H       0.72748   0.33126   0.75022
H          H       0.67118   0.25938   0.74974
H          H       0.63335   0.29373   0.74976
C          C       0.72597   0.27148   0.75005
C          C       0.75400   0.28002   0.75005
C          C       0.72311   0.24039   0.75005
N          N       0.69878   0.22632   0.75006
N          N       0.73751   0.19153   0.75009
S          S       0.70474   0.19174   0.75008
C          C       0.63574   0.35234   0.74994
H          H       0.61542   0.34232   0.74993
N          N       0.63963   0.38031   0.74997
C          C       0.61835   0.40023   0.75001
C          C       0.62585   0.42978   0.74988
C          C       0.59025   0.39449   0.75022
C          C       0.60679   0.45189   0.74987
H          H       0.64742   0.43483   0.74980
C          C       0.57127   0.41691   0.75033
H          H       0.58282   0.37216   0.75036
C          C       0.57825   0.44698   0.75009
H          H       0.61513   0.47372   0.74967
H          H       0.55042   0.40976   0.75072
C          C       0.55922   0.47258   0.75006
C          C       0.52993   0.47272   0.74989
C          C       0.51415   0.44704   0.74962
H          H       0.52371   0.42599   0.74930
C          C       0.18562   0.84227   0.74993
C          C       0.20711   0.82293   0.74996
C          C       0.20315   0.79217   0.75004
C          C       0.17568   0.78257   0.75006
C          C       0.15419   0.80206   0.74998
C          C       0.15853   0.83236   0.74997
H          H       0.18920   0.86565   0.74987
H          H       0.22756   0.83149   0.74996
H          H       0.17139   0.75948   0.75011
H          H       0.13347   0.79371   0.74996
C          C       0.22608   0.77164   0.75006
C          C       0.25411   0.78016   0.75005
C          C       0.22321   0.74055   0.75004
N          N       0.19888   0.72649   0.75002
N          N       0.23757   0.69168   0.75005
S          S       0.20481   0.69192   0.75000
C          C       0.13580   0.85239   0.75006
H          H       0.11549   0.84238   0.75012
N          N       0.13968   0.88036   0.75009
C          C       0.11836   0.90025   0.75007
C          C       0.12585   0.92981   0.75018
C          C       0.09027   0.89448   0.74988
C          C       0.10678   0.95189   0.75017
H          H       0.14741   0.93489   0.75029
C          C       0.07129   0.91690   0.74973
H          H       0.08283   0.87216   0.74977
C          C       0.07824   0.94697   0.74992
H          H       0.11509   0.97373   0.75035
H          H       0.05043   0.90976   0.74937
C          C       0.05918   0.97255   0.74991
C          C       0.02990   0.97270   0.75009
C          C       0.01413   0.94701   0.75031
H          H       0.02367   0.92595   0.75062
C          C       0.31458   0.65759   0.75001
C          C       0.29317   0.67706   0.75002
C          C       0.29724   0.70779   0.75000
C          C       0.32472   0.71727   0.74997
C          C       0.34614   0.69765   0.74997
C          C       0.34170   0.66738   0.75000
H          H       0.31086   0.63424   0.75001
H          H       0.27268   0.66861   0.75005
H          H       0.32913   0.74035   0.74990
H          H       0.36690   0.70587   0.74997
C          C       0.27428   0.72837   0.75001
C          C       0.24628   0.71984   0.75004
C          C       0.27716   0.75942   0.75001
N          N       0.30151   0.77350   0.74998
N          N       0.26278   0.80830   0.75005
S          S       0.29554   0.80808   0.74999
C          C       0.36440   0.64728   0.75001
H          H       0.38471   0.65731   0.75011
N          N       0.36057   0.61932   0.74993
C          C       0.38199   0.59950   0.74997
C          C       0.37461   0.56993   0.74997
C          C       0.41004   0.60539   0.75003
C          C       0.39377   0.54793   0.75004
H          H       0.35307   0.56476   0.74989
C          C       0.42914   0.58306   0.75012
H          H       0.41736   0.62775   0.74999
C          C       0.42229   0.55298   0.75010
H          H       0.38551   0.52607   0.75004
H          H       0.44997   0.59030   0.75022
C          C       0.44143   0.52743   0.75008
C          C       0.47069   0.52728   0.75000
C          C       0.48645   0.55297   0.74984
H          H       0.47685   0.57401   0.74969
C          C       0.81457   0.15748   0.74995
C          C       0.79311   0.17689   0.74997
C          C       0.79713   0.20764   0.75006
C          C       0.82460   0.21718   0.75009
C          C       0.84606   0.19761   0.75005
C          C       0.84166   0.16733   0.75001
H          H       0.81092   0.13411   0.74986
H          H       0.77264   0.16838   0.74991
H          H       0.82893   0.24027   0.75014
H          H       0.86679   0.20591   0.75005
C          C       0.77417   0.22822   0.75008
C          C       0.74618   0.21970   0.75008
C          C       0.77704   0.25927   0.75006
N          N       0.80138   0.27335   0.75006
N          N       0.76268   0.30817   0.75001
S          S       0.79545   0.30793   0.75002
C          C       0.86440   0.14728   0.75001
H          H       0.88470   0.15733   0.74999
N          N       0.86059   0.11932   0.75009
C          C       0.88201   0.09950   0.75008
C          C       0.87461   0.06993   0.74988
C          C       0.91007   0.10538   0.75022
C          C       0.89376   0.04792   0.74981
H          H       0.85306   0.06477   0.74975
C          C       0.92914   0.08303   0.75022
H          H       0.91742   0.12773   0.75038
C          C       0.92227   0.05296   0.75002
H          H       0.88549   0.02606   0.74958
H          H       0.94998   0.09024   0.75036
C          C       0.94140   0.02740   0.75006
C          C       0.97066   0.02726   0.75001
C          C       0.98643   0.05295   0.75003
H          H       0.97683   0.07398   0.75005
C          C       0.31460   0.34239   0.75001
C          C       0.29318   0.32292   0.74996
C          C       0.29726   0.29219   0.74998
C          C       0.32474   0.28268   0.75003
C          C       0.34616   0.30231   0.75009
C          C       0.34171   0.33259   0.75006
H          H       0.31087   0.36575   0.75001
H          H       0.27269   0.33138   0.74990
H          H       0.32915   0.25960   0.75003
H          H       0.36693   0.29408   0.75016
C          C       0.27429   0.27161   0.74996
C          C       0.24629   0.28014   0.75001
C          C       0.27716   0.24056   0.74997
N          N       0.30150   0.22647   0.75002
N          N       0.26276   0.19169   0.75004
S          S       0.29552   0.19189   0.75008
C          C       0.36442   0.35269   0.75001
H          H       0.38474   0.34267   0.75001
N          N       0.36060   0.38065   0.74999
C          C       0.38201   0.40049   0.74999
C          C       0.37462   0.43006   0.74994
C          C       0.41007   0.39462   0.75011
C          C       0.39377   0.45208   0.74995
H          H       0.35307   0.43522   0.74987
C          C       0.42916   0.41697   0.75019
H          H       0.41741   0.37227   0.75018
C          C       0.42228   0.44704   0.75006
H          H       0.38550   0.47395   0.74985
H          H       0.44999   0.40973   0.75040
C          C       0.44141   0.47260   0.75005
C          C       0.47068   0.47274   0.74995
C          C       0.48645   0.44705   0.74969
H          H       0.47684   0.42602   0.74946
C          C       0.81456   0.84251   0.75008
C          C       0.79310   0.82311   0.75008
C          C       0.79713   0.79236   0.75001
C          C       0.82459   0.78281   0.74991
C          C       0.84605   0.80237   0.74994
C          C       0.84166   0.83265   0.75002
H          H       0.81090   0.86588   0.75010
H          H       0.77263   0.83162   0.75011
H          H       0.82891   0.75972   0.74979
H          H       0.86678   0.79406   0.74986
C          C       0.77417   0.77177   0.75003
C          C       0.74618   0.78029   0.75002
C          C       0.77704   0.74072   0.75004
N          N       0.80138   0.72665   0.75005
N          N       0.76267   0.69182   0.75000
S          S       0.79545   0.69207   0.75002
C          C       0.86439   0.85270   0.75002
H          H       0.88469   0.84264   0.74998
N          N       0.86059   0.88066   0.75003
C          C       0.88201   0.90048   0.75001
C          C       0.87462   0.93005   0.74997
C          C       0.91007   0.89461   0.75001
C          C       0.89377   0.95206   0.74998
H          H       0.85307   0.93522   0.74991
C          C       0.92915   0.91696   0.75002
H          H       0.91743   0.87226   0.74998
C          C       0.92228   0.94703   0.75003
H          H       0.88550   0.97392   0.74988
H          H       0.94998   0.90974   0.75001
C          C       0.94141   0.97258   0.75006
C          C       0.97067   0.97272   0.75004
C          C       0.98642   0.94702   0.75018
H          H       0.97682   0.92599   0.75027
C          C       0.68557   0.65783   0.75005
C          C       0.70702   0.67722   0.75005
C          C       0.70302   0.70798   0.75001
C          C       0.67554   0.71754   0.75000
C          C       0.65408   0.69799   0.74997
C          C       0.65846   0.66769   0.75000
H          H       0.68922   0.63447   0.75009
H          H       0.72750   0.66873   0.75006
H          H       0.67119   0.74062   0.74998
H          H       0.63335   0.70628   0.74995
C          C       0.72596   0.72850   0.75001
C          C       0.75400   0.71997   0.75001
C          C       0.72311   0.75958   0.75001
N          N       0.69878   0.77365   0.74999
N          N       0.73750   0.80845   0.75004
S          S       0.70474   0.80823   0.75001
C          C       0.63575   0.64764   0.74998
H          H       0.61544   0.65766   0.74991
N          N       0.63964   0.61967   0.75001
C          C       0.61835   0.59976   0.75002
C          C       0.62585   0.57020   0.74993
C          C       0.59026   0.60550   0.75018
C          C       0.60680   0.54810   0.74989
H          H       0.64742   0.56514   0.74985
C          C       0.57128   0.58307   0.75023
H          H       0.58283   0.62782   0.75029
C          C       0.57825   0.55300   0.75006
H          H       0.61512   0.52626   0.74974
H          H       0.55043   0.59023   0.75046
C          C       0.55921   0.52741   0.75007
C          C       0.52992   0.52728   0.74995
C          C       0.51416   0.55297   0.74981
H          H       0.52372   0.57402   0.74963
C          C       0.18561   0.15773   0.74999
C          C       0.20710   0.17707   0.74999
C          C       0.20312   0.20784   0.74999
C          C       0.17565   0.21745   0.75001
C          C       0.15416   0.19795   0.75000
C          C       0.15851   0.16765   0.74999
H          H       0.18919   0.13434   0.75004
H          H       0.22755   0.16850   0.75002
H          H       0.17136   0.24055   0.75008
H          H       0.13345   0.20630   0.75002
C          C       0.22606   0.22835   0.74999
C          C       0.25410   0.21983   0.75000
C          C       0.22322   0.25944   0.75001
N          N       0.19890   0.27351   0.75009
N          N       0.23760   0.30830   0.75006
S          S       0.20484   0.30808   0.75014
C          C       0.13578   0.14761   0.75004
H          H       0.11546   0.15761   0.75012
N          N       0.13965   0.11964   0.75001
C          C       0.11835   0.09972   0.75001
C          C       0.12585   0.07016   0.75022
C          C       0.09026   0.10546   0.74978
C          C       0.10679   0.04806   0.75022
H          H       0.14741   0.06508   0.75043
C          C       0.07128   0.08303   0.74969
H          H       0.08281   0.12778   0.74962
C          C       0.07825   0.05297   0.74991
H          H       0.11511   0.02621   0.75051
H          H       0.05042   0.09017   0.74942
C          C       0.05920   0.02739   0.74987
C          C       0.02991   0.02726   0.74998
C          C       0.01413   0.05294   0.75002
H          H       0.02369   0.07399   0.75005
C          C       0.57151   0.50000   0.75023
H          H       0.59326   0.49999   0.75052
C          C       0.51514   0.50000   0.74996
C          C       0.07148   0.99997   0.74967
H          H       0.09322   0.99998   0.74929
C          C       0.01512   0.99999   0.75001
C          C       0.42913   0.50002   0.75011
H          H       0.40739   0.50001   0.75016
C          C       0.48547   0.50000   0.74999
C          C       0.92912   0.00000   0.75015
H          H       0.90738   0.00000   0.75033
C          C       0.98545   0.00000   0.75004
