data_crystal

_cell_length_a    30.29600
_cell_length_b    7.43100
_cell_length_c    25.46400
_cell_angle_alpha 90.00000
_cell_angle_beta  96.97400
_cell_angle_gamma 90.00000

_symmetry_space_group_name_Hall 'P 1'
_symmetry_space_group_name_H-M  'P 1'

loop_
_symmetry_equiv_pos_as_xyz
 'x,y,z'

loop_
_atom_site_label
_atom_site_type_symbol
_atom_site_fract_x
_atom_site_fract_y
_atom_site_fract_z
C          C       0.53261   0.51983   0.28335
C          C       0.46739   0.51983   0.21665
C          C       0.03261   0.01983   0.28335
C          C       0.96739   0.01983   0.21665
C          C       0.46739   0.48017   0.71665
C          C       0.53261   0.48017   0.78335
C          C       0.96739   0.98017   0.71665
C          C       0.03261   0.98017   0.78335
C          C       0.97555   0.76466   0.28513
C          C       0.02445   0.76466   0.21487
C          C       0.47555   0.26466   0.28513
C          C       0.52445   0.26466   0.21487
C          C       0.02445   0.23534   0.71487
C          C       0.97555   0.23534   0.78513
C          C       0.52445   0.73534   0.71487
C          C       0.47555   0.73534   0.78513
C          C       0.92874   0.75720   0.28234
C          C       0.07126   0.75720   0.21766
C          C       0.42874   0.25720   0.28234
C          C       0.57126   0.25720   0.21766
C          C       0.07126   0.24280   0.71766
C          C       0.92874   0.24280   0.78234
C          C       0.57126   0.74280   0.71766
C          C       0.42874   0.74280   0.78234
C          C       0.93274   0.50347   0.34209
C          C       0.06726   0.50347   0.15791
C          C       0.43274   0.00347   0.34209
C          C       0.56726   0.00347   0.15791
C          C       0.06726   0.49653   0.65791
C          C       0.93274   0.49653   0.84209
C          C       0.56726   0.99653   0.65791
C          C       0.43274   0.99653   0.84209
C          C       0.55761   0.64219   0.25658
C          C       0.44239   0.64219   0.24342
C          C       0.05761   0.14219   0.25658
C          C       0.94239   0.14219   0.24342
C          C       0.44239   0.35781   0.74342
C          C       0.55761   0.35781   0.75658
C          C       0.94239   0.85781   0.74342
C          C       0.05761   0.85781   0.75658
C          C       0.00033   0.63726   0.31777
C          C       0.99967   0.63726   0.18223
C          C       0.50033   0.13726   0.31777
C          C       0.49967   0.13726   0.18223
C          C       0.99967   0.36274   0.68223
C          C       0.00033   0.36274   0.81777
C          C       0.49967   0.86274   0.68223
C          C       0.50033   0.86274   0.81777
C          C       0.90797   0.63056   0.31104
C          C       0.09203   0.63056   0.18896
C          C       0.40797   0.13056   0.31104
C          C       0.59203   0.13056   0.18896
C          C       0.09203   0.36944   0.68896
C          C       0.90797   0.36944   0.81104
C          C       0.59203   0.86944   0.68896
C          C       0.40797   0.86944   0.81104
N          N       0.61571   0.91176   0.36869
N          N       0.38429   0.91176   0.13131
N          N       0.11571   0.41176   0.36869
N          N       0.88429   0.41176   0.13131
N          N       0.38429   0.08824   0.63131
N          N       0.61571   0.08824   0.86869
N          N       0.88429   0.58824   0.63131
N          N       0.11571   0.58824   0.86869
C          C       0.53610   0.53198   0.33914
C          C       0.46390   0.53198   0.16086
C          C       0.03610   0.03198   0.33914
C          C       0.96390   0.03198   0.16086
C          C       0.46390   0.46802   0.66086
C          C       0.53610   0.46802   0.83914
C          C       0.96390   0.96802   0.66086
C          C       0.03610   0.96802   0.83914
C          C       0.58927   0.77656   0.33939
C          C       0.41073   0.77656   0.16061
C          C       0.08927   0.27656   0.33939
C          C       0.91073   0.27656   0.16061
C          C       0.41073   0.22344   0.66061
C          C       0.58927   0.22344   0.83939
C          C       0.91073   0.72344   0.66061
C          C       0.08927   0.72344   0.83939
C          C       0.56458   0.65723   0.36661
C          C       0.43542   0.65723   0.13339
C          C       0.06458   0.15723   0.36661
C          C       0.93542   0.15723   0.13339
C          C       0.43542   0.34277   0.63339
C          C       0.56458   0.34277   0.86661
C          C       0.93542   0.84277   0.63339
C          C       0.06458   0.84277   0.86661
N          N       0.90854   0.36497   0.36499
N          N       0.09146   0.36497   0.13501
N          N       0.40854   0.86497   0.36499
N          N       0.59146   0.86497   0.13501
N          N       0.09146   0.63503   0.63501
N          N       0.90854   0.63503   0.86499
N          N       0.59146   0.13503   0.63501
N          N       0.40854   0.13503   0.86499
C          C       0.97929   0.50873   0.34617
C          C       0.02071   0.50873   0.15383
C          C       0.47929   0.00873   0.34617
C          C       0.52071   0.00873   0.15383
C          C       0.02071   0.49127   0.65383
C          C       0.97929   0.49127   0.84617
C          C       0.52071   0.99127   0.65383
C          C       0.47929   0.99127   0.84617
C          C       0.58648   0.76422   0.28409
C          C       0.41352   0.76422   0.21591
C          C       0.08648   0.26422   0.28409
C          C       0.91352   0.26422   0.21591
C          C       0.41352   0.23578   0.71591
C          C       0.58648   0.23578   0.78409
C          C       0.91352   0.73578   0.71591
C          C       0.08648   0.73578   0.78409
C          C       0.22490   0.88491   0.97101
C          C       0.77510   0.88491   0.52899
C          C       0.72490   0.38491   0.97101
C          C       0.27510   0.38491   0.52899
C          C       0.77510   0.11509   0.02899
C          C       0.22490   0.11509   0.47101
C          C       0.27510   0.61509   0.02899
C          C       0.72490   0.61509   0.47101
C          C       0.26106   0.80388   0.95035
C          C       0.73894   0.80388   0.54965
C          C       0.76106   0.30388   0.95035
C          C       0.23894   0.30388   0.54965
C          C       0.73894   0.19612   0.04965
C          C       0.26106   0.19612   0.45035
C          C       0.23894   0.69612   0.04965
C          C       0.76106   0.69612   0.45035
C          C       0.28621   0.66958   0.97903
C          C       0.71379   0.66958   0.52097
C          C       0.78621   0.16958   0.97903
C          C       0.21379   0.16958   0.52097
C          C       0.71379   0.33042   0.02097
C          C       0.28621   0.33042   0.47903
C          C       0.21379   0.83042   0.02097
C          C       0.78621   0.83042   0.47903
C          C       0.31947   0.50538   0.11159
C          C       0.68053   0.50538   0.38841
C          C       0.81947   0.00538   0.11159
C          C       0.18053   0.00538   0.38841
C          C       0.68053   0.49462   0.88841
C          C       0.31947   0.49462   0.61159
C          C       0.18053   0.99462   0.88841
C          C       0.81947   0.99462   0.61159
C          C       0.13325   0.91570   0.01812
C          C       0.86675   0.91570   0.48188
C          C       0.63325   0.41570   0.01812
C          C       0.36675   0.41570   0.48188
C          C       0.86675   0.08430   0.98188
C          C       0.13325   0.08430   0.51812
C          C       0.36675   0.58430   0.98188
C          C       0.63325   0.58430   0.51812
C          C       0.17672   0.91528   0.04466
C          C       0.82328   0.91528   0.45534
C          C       0.67672   0.41528   0.04466
C          C       0.32328   0.41528   0.45534
C          C       0.82328   0.08472   0.95534
C          C       0.17672   0.08472   0.54466
C          C       0.32328   0.58472   0.95534
C          C       0.67672   0.58472   0.54466
C          C       0.18550   0.00209   0.09358
C          C       0.81450   0.00209   0.40642
C          C       0.68550   0.50209   0.09358
C          C       0.31450   0.50209   0.40642
C          C       0.81450   0.99791   0.90642
C          C       0.18550   0.99791   0.59358
C          C       0.31450   0.49791   0.90642
C          C       0.68550   0.49791   0.59358
C          C       0.15201   0.09614   0.11438
C          C       0.84799   0.09614   0.38562
C          C       0.65201   0.59614   0.11438
C          C       0.34799   0.59614   0.38562
C          C       0.84799   0.90386   0.88562
C          C       0.15201   0.90386   0.61438
C          C       0.34799   0.40386   0.88562
C          C       0.65201   0.40386   0.61438
C          C       0.10937   0.10945   0.08592
C          C       0.89063   0.10945   0.41408
C          C       0.60937   0.60945   0.08592
C          C       0.39063   0.60945   0.41408
C          C       0.89063   0.89055   0.91408
C          C       0.10937   0.89055   0.58592
C          C       0.39063   0.39055   0.91408
C          C       0.60937   0.39055   0.58592
C          C       0.09969   0.01330   0.03855
C          C       0.90031   0.01330   0.46145
C          C       0.59969   0.51330   0.03855
C          C       0.40031   0.51330   0.46145
C          C       0.90031   0.98670   0.96145
C          C       0.09969   0.98670   0.53855
C          C       0.40031   0.48670   0.96145
C          C       0.59969   0.48670   0.53855
C          C       0.34243   0.37020   0.14123
C          C       0.65757   0.37020   0.35877
C          C       0.84243   0.87020   0.14123
C          C       0.15757   0.87020   0.35877
C          C       0.65757   0.62980   0.85877
C          C       0.34243   0.62980   0.64123
C          C       0.15757   0.12980   0.85877
C          C       0.84243   0.12980   0.64123
C          C       0.34688   0.19883   0.11945
C          C       0.65312   0.19883   0.38055
C          C       0.84688   0.69883   0.11945
C          C       0.15312   0.69883   0.38055
C          C       0.65312   0.80117   0.88055
C          C       0.34688   0.80117   0.61945
C          C       0.15312   0.30117   0.88055
C          C       0.84688   0.30117   0.61945
C          C       0.32740   0.16335   0.06762
C          C       0.67260   0.16335   0.43238
C          C       0.82740   0.66335   0.06762
C          C       0.17260   0.66335   0.43238
C          C       0.67260   0.83665   0.93238
C          C       0.32740   0.83665   0.56762
C          C       0.17260   0.33665   0.93238
C          C       0.82740   0.33665   0.56762
C          C       0.30401   0.29867   0.03813
C          C       0.69599   0.29867   0.46187
C          C       0.80401   0.79867   0.03813
C          C       0.19599   0.79867   0.46187
C          C       0.69599   0.70133   0.96187
C          C       0.30401   0.70133   0.53813
C          C       0.19599   0.20133   0.96187
C          C       0.80401   0.20133   0.53813
C          C       0.30009   0.47091   0.05982
C          C       0.69991   0.47091   0.44018
C          C       0.80009   0.97091   0.05982
C          C       0.19991   0.97091   0.44018
C          C       0.69991   0.52909   0.94018
C          C       0.30009   0.52909   0.55982
C          C       0.19991   0.02909   0.94018
C          C       0.80009   0.02909   0.55982
C          C       0.07673   0.23467   0.10385
C          C       0.92327   0.23467   0.39615
C          C       0.57673   0.73467   0.10385
C          C       0.42327   0.73467   0.39615
C          C       0.92327   0.76533   0.89615
C          C       0.07673   0.76533   0.60385
C          C       0.42327   0.26533   0.89615
C          C       0.57673   0.26533   0.60385
C          C       0.37230   0.06165   0.15167
C          C       0.62770   0.06165   0.34833
C          C       0.87230   0.56165   0.15167
C          C       0.12770   0.56165   0.34833
C          C       0.62770   0.93835   0.84833
C          C       0.37230   0.93835   0.65167
C          C       0.12770   0.43835   0.84833
C          C       0.87230   0.43835   0.65167
O          O       0.27161   0.14584   0.40026
O          O       0.72839   0.14584   0.09974
O          O       0.77161   0.64584   0.40026
O          O       0.22839   0.64584   0.09974
O          O       0.72839   0.85416   0.59974
O          O       0.27161   0.85416   0.90026
O          O       0.22839   0.35416   0.59974
O          O       0.77161   0.35416   0.90026
H          H       0.90720   0.84264   0.25659
H          H       0.09280   0.84264   0.24341
H          H       0.40720   0.34264   0.25659
H          H       0.59280   0.34264   0.24341
H          H       0.09280   0.15736   0.74341
H          H       0.90720   0.15736   0.75659
H          H       0.59280   0.65736   0.74341
H          H       0.40720   0.65736   0.75659
H          H       0.55534   0.63987   0.21383
H          H       0.44466   0.63987   0.28617
H          H       0.05534   0.13987   0.21383
H          H       0.94466   0.13987   0.28617
H          H       0.44466   0.36013   0.78617
H          H       0.55534   0.36013   0.71383
H          H       0.94466   0.86013   0.78617
H          H       0.05534   0.86013   0.71383
H          H       0.03620   0.63611   0.32046
H          H       0.96380   0.63611   0.17954
H          H       0.53620   0.13611   0.32046
H          H       0.46380   0.13611   0.17954
H          H       0.96380   0.36389   0.67954
H          H       0.03620   0.36389   0.82046
H          H       0.46380   0.86389   0.67954
H          H       0.53620   0.86389   0.82046
H          H       0.87197   0.62603   0.30709
H          H       0.12803   0.62603   0.19291
H          H       0.37197   0.12603   0.30709
H          H       0.62803   0.12603   0.19291
H          H       0.12803   0.37397   0.69291
H          H       0.87197   0.37397   0.80709
H          H       0.62803   0.87397   0.69291
H          H       0.37197   0.87397   0.80709
H          H       0.51608   0.45024   0.36210
H          H       0.48392   0.45024   0.13790
H          H       0.01608   0.95024   0.36210
H          H       0.98392   0.95024   0.13790
H          H       0.48392   0.54976   0.63790
H          H       0.51608   0.54976   0.86210
H          H       0.98392   0.04976   0.63790
H          H       0.01608   0.04976   0.86210
H          H       0.56597   0.66623   0.40919
H          H       0.43403   0.66623   0.09081
H          H       0.06597   0.16623   0.40919
H          H       0.93403   0.16623   0.09081
H          H       0.43403   0.33377   0.59081
H          H       0.56597   0.33377   0.90919
H          H       0.93403   0.83377   0.59081
H          H       0.06597   0.83377   0.90919
H          H       0.99943   0.41263   0.37003
H          H       0.00057   0.41263   0.12997
H          H       0.49943   0.91263   0.37003
H          H       0.50057   0.91263   0.12997
H          H       0.00057   0.58737   0.62997
H          H       0.99943   0.58737   0.87003
H          H       0.50057   0.08737   0.62997
H          H       0.49943   0.08737   0.87003
H          H       0.60662   0.84751   0.26174
H          H       0.39338   0.84751   0.23826
H          H       0.10662   0.34751   0.26174
H          H       0.89338   0.34751   0.23826
H          H       0.39338   0.15249   0.73826
H          H       0.60662   0.15249   0.76174
H          H       0.89338   0.65249   0.73826
H          H       0.10662   0.65249   0.76174
H          H       0.31686   0.63733   0.12900
H          H       0.68314   0.63733   0.37100
H          H       0.81686   0.13733   0.12900
H          H       0.18314   0.13733   0.37100
H          H       0.68314   0.36267   0.87100
H          H       0.31686   0.36267   0.62900
H          H       0.18314   0.86267   0.87100
H          H       0.81686   0.86267   0.62900
H          H       0.12589   0.84564   0.98084
H          H       0.87411   0.84564   0.51916
H          H       0.62589   0.34564   0.98084
H          H       0.37411   0.34564   0.51916
H          H       0.87411   0.15436   0.01916
H          H       0.12589   0.15436   0.48084
H          H       0.37411   0.65436   0.01916
H          H       0.62589   0.65436   0.48084
H          H       0.21875   0.00254   0.11477
H          H       0.78125   0.00254   0.38523
H          H       0.71875   0.50254   0.11477
H          H       0.28125   0.50254   0.38523
H          H       0.78125   0.99746   0.88523
H          H       0.21875   0.99746   0.61477
H          H       0.28125   0.49746   0.88523
H          H       0.71875   0.49746   0.61477
H          H       0.16004   0.16480   0.15183
H          H       0.83996   0.16480   0.34817
H          H       0.66004   0.66480   0.15183
H          H       0.33996   0.66480   0.34817
H          H       0.83996   0.83520   0.84817
H          H       0.16004   0.83520   0.65183
H          H       0.33996   0.33520   0.84817
H          H       0.66004   0.33520   0.65183
H          H       0.06688   0.01992   0.01638
H          H       0.93312   0.01992   0.48362
H          H       0.56688   0.51992   0.01638
H          H       0.43312   0.51992   0.48362
H          H       0.93312   0.98008   0.98362
H          H       0.06688   0.98008   0.51638
H          H       0.43312   0.48008   0.98362
H          H       0.56688   0.48008   0.51638
H          H       0.35710   0.40048   0.18109
H          H       0.64290   0.40048   0.31891
H          H       0.85710   0.90048   0.18109
H          H       0.14290   0.90048   0.31891
H          H       0.64290   0.59952   0.81891
H          H       0.35710   0.59952   0.68109
H          H       0.14290   0.09952   0.81891
H          H       0.85710   0.09952   0.68109
H          H       0.33009   0.03168   0.05001
H          H       0.66991   0.03168   0.44999
H          H       0.83009   0.53168   0.05001
H          H       0.16991   0.53168   0.44999
H          H       0.66991   0.96832   0.94999
H          H       0.33009   0.96832   0.55001
H          H       0.16991   0.46832   0.94999
H          H       0.83009   0.46832   0.55001
H          H       0.28907   0.26950   0.99838
H          H       0.71093   0.26950   0.50162
H          H       0.78907   0.76950   0.99838
H          H       0.21093   0.76950   0.50162
H          H       0.71093   0.73050   0.00162
H          H       0.28907   0.73050   0.49838
H          H       0.21093   0.23050   0.00162
H          H       0.78907   0.23050   0.49838
H          H       0.04185   0.22202   0.08914
H          H       0.95815   0.22202   0.41086
H          H       0.54185   0.72202   0.08914
H          H       0.45815   0.72202   0.41086
H          H       0.95815   0.77798   0.91086
H          H       0.04185   0.77798   0.58914
H          H       0.45815   0.27798   0.91086
H          H       0.54185   0.27798   0.58914
H          H       0.38333   0.09470   0.19241
H          H       0.61667   0.09470   0.30759
H          H       0.88333   0.59470   0.19241
H          H       0.11667   0.59470   0.30759
H          H       0.61667   0.90530   0.80759
H          H       0.38333   0.90530   0.69241
H          H       0.11667   0.40530   0.80759
H          H       0.88333   0.40530   0.69241
C          C       0.30332   0.00396   0.40183
C          C       0.69668   0.00396   0.09817
C          C       0.80332   0.50396   0.40183
C          C       0.19668   0.50396   0.09817
C          C       0.69668   0.99604   0.59817
C          C       0.30332   0.99604   0.90183
C          C       0.19668   0.49604   0.59817
C          C       0.80332   0.49604   0.90183
H          H       0.31087   0.97754   0.36101
H          H       0.68913   0.97754   0.13899
H          H       0.81087   0.47754   0.36101
H          H       0.18913   0.47754   0.13899
H          H       0.68913   0.02246   0.63899
H          H       0.31087   0.02246   0.86101
H          H       0.18913   0.52246   0.63899
H          H       0.81087   0.52246   0.86101
H          H       0.28948   0.87934   0.41729
H          H       0.71052   0.87934   0.08271
H          H       0.78948   0.37934   0.41729
H          H       0.21052   0.37934   0.08271
H          H       0.71052   0.12066   0.58271
H          H       0.28948   0.12066   0.91729
H          H       0.21052   0.62066   0.58271
H          H       0.78948   0.62066   0.91729
H          H       0.33476   0.04137   0.42659
H          H       0.66524   0.04137   0.07341
H          H       0.83476   0.54137   0.42659
H          H       0.16524   0.54137   0.07341
H          H       0.66524   0.95863   0.57341
H          H       0.33476   0.95863   0.92659
H          H       0.16524   0.45863   0.57341
H          H       0.83476   0.45863   0.92659
C          C       0.50000   0.39190   0.25000
C          C       0.00000   0.89190   0.25000
C          C       0.50000   0.60810   0.75000
C          C       0.00000   0.10810   0.75000
