data_crystal

_cell_length_a    46.23100
_cell_length_b    46.23100
_cell_length_c    4.07851
_cell_angle_alpha 90.00000
_cell_angle_beta  90.00000
_cell_angle_gamma 120.00000

_symmetry_space_group_name_Hall 'P 1'
_symmetry_space_group_name_H-M  'P 1'

loop_
_symmetry_equiv_pos_as_xyz
 'x,y,z'

loop_
_atom_site_label
_atom_site_type_symbol
_atom_site_fract_x
_atom_site_fract_y
_atom_site_fract_z
C          C       0.60426   0.16673   0.57380
C          C       0.46226   0.45959   0.25054
C          C       0.63673   0.19111   0.65973
C          C       0.48424   0.44661   0.26022
C          C       0.65015   0.22492   0.58724
C          C       0.51808   0.46671   0.34016
C          C       0.63177   0.23618   0.42363
C          C       0.52917   0.50025   0.42553
C          C       0.59947   0.21165   0.32712
C          C       0.50722   0.51309   0.41480
C          C       0.58584   0.17733   0.40141
C          C       0.36560   0.59073   0.29195
C          C       0.64626   0.27342   0.37002
C          C       0.38550   0.57542   0.31643
C          C       0.68111   0.29453   0.33079
C          C       0.41322   0.58845   0.50815
C          C       0.69591   0.32958   0.30566
C          C       0.42057   0.61732   0.67092
C          C       0.67483   0.34363   0.31535
C          C       0.40109   0.63278   0.64410
C          C       0.63981   0.32357   0.35304
C          C       0.37315   0.61980   0.45534
C          C       0.62599   0.28840   0.37741
C          C       0.39172   0.74692   0.30685
C          C       0.73343   0.35151   0.27487
C          C       0.40689   0.78200   0.34308
C          C       0.75573   0.34509   0.43760
C          C       0.39395   0.79577   0.54594
C          C       0.79070   0.36565   0.40860
C          C       0.36507   0.77355   0.70481
C          C       0.80453   0.39298   0.21231
C          C       0.34959   0.73876   0.66409
C          C       0.78231   0.39921   0.04827
C          C       0.36282   0.72468   0.46771
C          C       0.74743   0.37907   0.08071
C          C       0.31649   0.61655   0.43260
C          C       0.61798   0.33947   0.38123
C          C       0.35178   0.63618   0.43683
C          C       0.62477   0.36861   0.22251
C          C       0.36648   0.67142   0.43972
C          C       0.60444   0.38338   0.25410
C          C       0.34683   0.68705   0.44126
C          C       0.57668   0.36946   0.44562
C          C       0.31162   0.66652   0.43353
C          C       0.57005   0.34051   0.60386
C          C       0.29576   0.63115   0.43066
C          C       0.59028   0.32590   0.57316
C          C       0.20650   0.55569   0.34482
C          C       0.43456   0.57260   0.55288
C          C       0.24137   0.57670   0.31905
C          C       0.55389   0.38371   0.48768
C          C       0.25777   0.60946   0.43623
C          C       0.54222   0.45405   0.30016
C          C       0.23730   0.62071   0.56695
C          C       0.45136   0.50836   0.27167
C          C       0.20225   0.59995   0.58412
C          C       0.47370   0.49345   0.32085
C          C       0.18643   0.56694   0.47801
C          C       0.15043   0.54272   0.54611
O          O       0.55116   0.04217   0.12888
C          C       0.06628   0.50066   0.51526
O          O       0.03054   0.53167   0.80470
C          C       0.01017   0.45985   0.31285
O          O       0.42899   0.43868   0.17100
C          C       0.02951   0.48861   0.48527
O          O       0.56160   0.52172   0.52563
C          C       0.01257   0.50192   0.64602
O          O       0.48433   0.03746   0.53628
C          C       0.58939   0.13348   0.72852
O          O       0.43866   0.91378   0.14689
C          C       0.54364   0.04903   0.89174
O          O       0.51578   0.93492   0.64883
C          C       0.52993   0.99264   0.71674
H          H       0.90904   0.42221   0.75111
C          C       0.52255   0.01895   0.70010
H          H       0.95880   0.41405   0.14448
C          C       0.49296   0.01246   0.55459
H          H       0.65146   0.18419   0.79835
C          C       0.41183   0.83225   0.62778
H          H       0.67461   0.24256   0.67369
C          C       0.45369   0.91791   0.37901
H          H       0.58451   0.21903   0.19805
C          C       0.47773   0.95310   0.48059
H          H       0.56043   0.15948   0.33756
C          C       0.50790   0.96027   0.61426
H          H       0.69703   0.28362   0.31656
C          C       0.47116   0.97982   0.44050
H          H       0.68601   0.37053   0.30609
C          C       0.84161   0.41458   0.16635
H          H       0.59939   0.27263   0.40970
C          C       0.92055   0.43616   0.51981
H          H       0.74614   0.32445   0.59198
C          C       0.95789   0.45566   0.48071
H          H       0.80705   0.36000   0.53742
C          C       0.97510   0.44328   0.31080
H          H       0.79200   0.41970   0.89223
C          C       0.97717   0.48524   0.64455
H          H       0.73131   0.38453   0.94708
N          N       0.43280   0.54845   0.38870
H          H       0.64543   0.37968   0.06852
N          N       0.45352   0.53428   0.44079
H          H       0.61017   0.40549   0.12673
N          N       0.55825   0.41109   0.36125
H          H       0.54920   0.32924   0.75627
N          N       0.53580   0.42335   0.40717
H          H       0.58452   0.30425   0.70698
N          N       0.12620   0.55042   0.52049
H          H       0.45268   0.58221   0.73097
N          N       0.09270   0.52953   0.64870
H          H       0.53272   0.37037   0.63409
N          N       0.56254   0.10523   0.65474
H          H       0.46983   0.54245   0.62070
N          N       0.54717   0.08052   0.87915
H          H       0.51420   0.40946   0.53338
N          N       0.42914   0.85674   0.44291
H          H       0.47512   0.42105   0.19282
N          N       0.44784   0.89038   0.54431
H          H       0.51697   0.53908   0.47151
N          N       0.86352   0.41531   0.35348
H          H       0.34458   0.58010   0.14152
N          N       0.89872   0.43529   0.31457
H          H       0.37926   0.55335   0.18661
N          N       0.43148   0.49789   0.06753
H          H       0.44147   0.62788   0.82297
O          O       0.56789   0.47115   0.16181
H          H       0.40742   0.65453   0.77850
O          O       0.07811   0.51141   0.76167
H          H       0.40253   0.73711   0.15190
H          H       0.42937   0.79829   0.22056
H          H       0.55490   0.09004   0.09248
H          H       0.35479   0.78315   0.86767
H          H       0.55265   0.99719   0.82681
H          H       0.32789   0.72271   0.79647
H          H       0.01616   0.53844   0.92055
H          H       0.30524   0.58970   0.44415
H          H       0.42304   0.41522   0.11419
H          H       0.39339   0.68685   0.44640
H          H       0.57586   0.51118   0.56240
H          H       0.29659   0.67843   0.42586
H          H       0.46269   0.02980   0.42389
H          H       0.19516   0.53031   0.26262
H          H       0.40929   0.83837   0.85458
H          H       0.25547   0.56697   0.20857
H          H       0.45842   0.89514   0.75488
H          H       0.24835   0.64516   0.66760
H          H       0.44842   0.97464   0.32881
H          H       0.18766   0.60907   0.69633
H          H       0.53849   0.94318   0.74377
H          H       0.14444   0.51884   0.64124
H          H       0.85030   0.43044   0.97217
H          H       0.10755   0.55107   0.50868
H          H       0.90968   0.44937   0.12957
H          H       0.02228   0.44895   0.18691
H          H       0.96457   0.49485   0.77931
H          H       0.60098   0.13456   0.93938
H          H       0.93344   0.40241   0.14459
