data_crystal

_cell_length_a    10.52230
_cell_length_b    89.01380
_cell_length_c    26.29070
_cell_angle_alpha 90.00000
_cell_angle_beta  90.00000
_cell_angle_gamma 90.00000

_symmetry_space_group_name_Hall 'P 1'
_symmetry_space_group_name_H-M  'P 1'

loop_
_symmetry_equiv_pos_as_xyz
 'x,y,z'

loop_
_atom_site_label
_atom_site_type_symbol
_atom_site_fract_x
_atom_site_fract_y
_atom_site_fract_z
C          C       0.74160   0.75768   0.11548
C          C       0.25840   0.24232   0.11548
C          C       0.25840   0.75768   0.88452
C          C       0.74160   0.24232   0.88452
C          C       0.24160   0.25768   0.11548
C          C       0.75840   0.74232   0.11548
C          C       0.75840   0.25768   0.88452
C          C       0.24160   0.74232   0.88452
C          C       0.25840   0.24232   0.88452
C          C       0.74160   0.75768   0.88452
C          C       0.74160   0.24232   0.11548
C          C       0.25840   0.75768   0.11548
C          C       0.75840   0.74232   0.88452
C          C       0.24160   0.25768   0.88452
C          C       0.24160   0.74232   0.11548
C          C       0.75840   0.25768   0.11548
S          S       0.77153   0.73253   0.05831
S          S       0.22847   0.26747   0.05831
S          S       0.22847   0.73253   0.94169
S          S       0.77153   0.26747   0.94169
S          S       0.27153   0.23253   0.05831
S          S       0.72847   0.76747   0.05831
S          S       0.72847   0.23253   0.94169
S          S       0.27153   0.76747   0.94169
S          S       0.22847   0.26747   0.94169
S          S       0.77153   0.73253   0.94169
S          S       0.77153   0.26747   0.05831
S          S       0.22847   0.73253   0.05831
S          S       0.72847   0.76747   0.94169
S          S       0.27153   0.23253   0.94169
S          S       0.27153   0.76747   0.05831
S          S       0.72847   0.23253   0.05831
C          C       0.66051   0.81505   0.43068
C          C       0.33949   0.18495   0.43068
C          C       0.33949   0.81505   0.56932
C          C       0.66051   0.18495   0.56932
C          C       0.16051   0.31505   0.43068
C          C       0.83949   0.68495   0.43068
C          C       0.83949   0.31505   0.56932
C          C       0.16051   0.68495   0.56932
C          C       0.33949   0.18495   0.56932
C          C       0.66051   0.81505   0.56932
C          C       0.66051   0.18495   0.43068
C          C       0.33949   0.81505   0.43068
C          C       0.83949   0.68495   0.56932
C          C       0.16051   0.31505   0.56932
C          C       0.16051   0.68495   0.43068
C          C       0.83949   0.31505   0.43068
C          C       0.66451   0.80694   0.38711
C          C       0.33549   0.19306   0.38711
C          C       0.33549   0.80694   0.61289
C          C       0.66451   0.19306   0.61289
C          C       0.16451   0.30694   0.38711
C          C       0.83549   0.69306   0.38711
C          C       0.83549   0.30694   0.61289
C          C       0.16451   0.69306   0.61289
C          C       0.33549   0.19306   0.61289
C          C       0.66451   0.80694   0.61289
C          C       0.66451   0.19306   0.38711
C          C       0.33549   0.80694   0.38711
C          C       0.83549   0.69306   0.61289
C          C       0.16451   0.30694   0.61289
C          C       0.16451   0.69306   0.38711
C          C       0.83549   0.30694   0.38711
C          C       0.75639   0.80215   0.36822
C          C       0.24361   0.19785   0.36822
C          C       0.24361   0.80215   0.63178
C          C       0.75639   0.19785   0.63178
C          C       0.25639   0.30215   0.36822
C          C       0.74361   0.69785   0.36822
C          C       0.74361   0.30215   0.63178
C          C       0.25639   0.69785   0.63178
C          C       0.24361   0.19785   0.63178
C          C       0.75639   0.80215   0.63178
C          C       0.75639   0.19785   0.36822
C          C       0.24361   0.80215   0.36822
C          C       0.74361   0.69785   0.63178
C          C       0.25639   0.30215   0.63178
C          C       0.25639   0.69785   0.36822
C          C       0.74361   0.30215   0.36822
C          C       0.84284   0.80523   0.39432
C          C       0.15716   0.19477   0.39432
C          C       0.15716   0.80523   0.60568
C          C       0.84284   0.19477   0.60568
C          C       0.34284   0.30523   0.39432
C          C       0.65716   0.69477   0.39432
C          C       0.65716   0.30523   0.60568
C          C       0.34284   0.69477   0.60568
C          C       0.15716   0.19477   0.60568
C          C       0.84284   0.80523   0.60568
C          C       0.84284   0.19477   0.39432
C          C       0.15716   0.80523   0.39432
C          C       0.65716   0.69477   0.60568
C          C       0.34284   0.30523   0.60568
C          C       0.34284   0.69477   0.39432
C          C       0.65716   0.30523   0.39432
C          C       0.83885   0.81346   0.43764
C          C       0.16115   0.18654   0.43764
C          C       0.16115   0.81346   0.56236
C          C       0.83885   0.18654   0.56236
C          C       0.33885   0.31346   0.43764
C          C       0.66115   0.68654   0.43764
C          C       0.66115   0.31346   0.56236
C          C       0.33885   0.68654   0.56236
C          C       0.16115   0.18654   0.56236
C          C       0.83885   0.81346   0.56236
C          C       0.83885   0.18654   0.43764
C          C       0.16115   0.81346   0.43764
C          C       0.66115   0.68654   0.56236
C          C       0.33885   0.31346   0.56236
C          C       0.33885   0.68654   0.43764
C          C       0.66115   0.31346   0.43764
C          C       0.74768   0.81849   0.45587
C          C       0.25232   0.18151   0.45587
C          C       0.25232   0.81849   0.54413
C          C       0.74768   0.18151   0.54413
C          C       0.24768   0.31849   0.45587
C          C       0.75232   0.68151   0.45587
C          C       0.75232   0.31849   0.54413
C          C       0.24768   0.68151   0.54413
C          C       0.25232   0.18151   0.54413
C          C       0.74768   0.81849   0.54413
C          C       0.74768   0.18151   0.45587
C          C       0.25232   0.81849   0.45587
C          C       0.75232   0.68151   0.54413
C          C       0.24768   0.31849   0.54413
C          C       0.24768   0.68151   0.45587
C          C       0.75232   0.31849   0.45587
C          C       0.71020   0.85183   0.45631
C          C       0.28980   0.14817   0.45631
C          C       0.28980   0.85183   0.54369
C          C       0.71020   0.14817   0.54369
C          C       0.21020   0.35183   0.45631
C          C       0.78980   0.64817   0.45631
C          C       0.78980   0.35183   0.54369
C          C       0.21020   0.64817   0.54369
C          C       0.28980   0.14817   0.54369
C          C       0.71020   0.85183   0.54369
C          C       0.71020   0.14817   0.45631
C          C       0.28980   0.85183   0.45631
C          C       0.78980   0.64817   0.54369
C          C       0.21020   0.35183   0.54369
C          C       0.21020   0.64817   0.45631
C          C       0.78980   0.35183   0.45631
C          C       0.68754   0.86761   0.45642
C          C       0.31246   0.13239   0.45642
C          C       0.31246   0.86761   0.54358
C          C       0.68754   0.13239   0.54358
C          C       0.18754   0.36761   0.45642
C          C       0.81246   0.63239   0.45642
C          C       0.81246   0.36761   0.54358
C          C       0.18754   0.63239   0.54358
C          C       0.31246   0.13239   0.54358
C          C       0.68754   0.86761   0.54358
C          C       0.68754   0.13239   0.45642
C          C       0.31246   0.86761   0.45642
C          C       0.81246   0.63239   0.54358
C          C       0.18754   0.36761   0.54358
C          C       0.18754   0.63239   0.45642
C          C       0.81246   0.36761   0.45642
C          C       0.70058   0.79429   0.28860
C          C       0.29942   0.20571   0.28860
C          C       0.29942   0.79429   0.71140
C          C       0.70058   0.20571   0.71140
C          C       0.20058   0.29429   0.28860
C          C       0.79942   0.70571   0.28860
C          C       0.79942   0.29429   0.71140
C          C       0.20058   0.70571   0.71140
C          C       0.29942   0.20571   0.71140
C          C       0.70058   0.79429   0.71140
C          C       0.70058   0.20571   0.28860
C          C       0.29942   0.79429   0.28860
C          C       0.79942   0.70571   0.71140
C          C       0.20058   0.29429   0.71140
C          C       0.20058   0.70571   0.28860
C          C       0.79942   0.29429   0.28860
N          N       0.76476   0.79388   0.32345
N          N       0.23524   0.20612   0.32345
N          N       0.23524   0.79388   0.67655
N          N       0.76476   0.20612   0.67655
N          N       0.26476   0.29388   0.32345
N          N       0.73524   0.70612   0.32345
N          N       0.73524   0.29388   0.67655
N          N       0.26476   0.70612   0.67655
N          N       0.23524   0.20612   0.67655
N          N       0.76476   0.79388   0.67655
N          N       0.76476   0.20612   0.32345
N          N       0.23524   0.79388   0.32345
N          N       0.73524   0.70612   0.67655
N          N       0.26476   0.29388   0.67655
N          N       0.26476   0.70612   0.32345
N          N       0.73524   0.29388   0.32345
C          C       0.64573   0.78642   0.79311
C          C       0.35427   0.21358   0.79311
C          C       0.35427   0.78642   0.20689
C          C       0.64573   0.21358   0.20689
C          C       0.14573   0.28642   0.79311
C          C       0.85427   0.71358   0.79311
C          C       0.85427   0.28642   0.20689
C          C       0.14573   0.71358   0.20689
C          C       0.35427   0.21358   0.20689
C          C       0.64573   0.78642   0.20689
C          C       0.64573   0.21358   0.79311
C          C       0.35427   0.78642   0.79311
C          C       0.85427   0.71358   0.20689
C          C       0.14573   0.28642   0.20689
C          C       0.14573   0.71358   0.79311
C          C       0.85427   0.28642   0.79311
C          C       0.65477   0.77749   0.83480
C          C       0.34523   0.22251   0.83480
C          C       0.34523   0.77749   0.16520
C          C       0.65477   0.22251   0.16520
C          C       0.15477   0.27749   0.83480
C          C       0.84523   0.72251   0.83480
C          C       0.84523   0.27749   0.16520
C          C       0.15477   0.72251   0.16520
C          C       0.34523   0.22251   0.16520
C          C       0.65477   0.77749   0.16520
C          C       0.65477   0.22251   0.83480
C          C       0.34523   0.77749   0.83480
C          C       0.84523   0.72251   0.16520
C          C       0.15477   0.27749   0.16520
C          C       0.15477   0.72251   0.83480
C          C       0.84523   0.27749   0.83480
C          C       0.73409   0.76717   0.84014
C          C       0.26591   0.23283   0.84014
C          C       0.26591   0.76717   0.15986
C          C       0.73409   0.23283   0.15986
C          C       0.23409   0.26717   0.84014
C          C       0.76591   0.73283   0.84014
C          C       0.76591   0.26717   0.15986
C          C       0.23409   0.73283   0.15986
C          C       0.26591   0.23283   0.15986
C          C       0.73409   0.76717   0.15986
C          C       0.73409   0.23283   0.84014
C          C       0.26591   0.76717   0.84014
C          C       0.76591   0.73283   0.15986
C          C       0.23409   0.26717   0.15986
C          C       0.23409   0.73283   0.84014
C          C       0.76591   0.26717   0.84014
C          C       0.80611   0.76630   0.80360
C          C       0.19389   0.23370   0.80360
C          C       0.19389   0.76630   0.19640
C          C       0.80611   0.23370   0.19640
C          C       0.30611   0.26630   0.80360
C          C       0.69389   0.73370   0.80360
C          C       0.69389   0.26630   0.19640
C          C       0.30611   0.73370   0.19640
C          C       0.19389   0.23370   0.19640
C          C       0.80611   0.76630   0.19640
C          C       0.80611   0.23370   0.80360
C          C       0.19389   0.76630   0.80360
C          C       0.69389   0.73370   0.19640
C          C       0.30611   0.26630   0.19640
C          C       0.30611   0.73370   0.80360
C          C       0.69389   0.26630   0.80360
C          C       0.79617   0.77509   0.76151
C          C       0.20383   0.22491   0.76151
C          C       0.20383   0.77509   0.23849
C          C       0.79617   0.22491   0.23849
C          C       0.29617   0.27509   0.76151
C          C       0.70383   0.72491   0.76151
C          C       0.70383   0.27509   0.23849
C          C       0.29617   0.72491   0.23849
C          C       0.20383   0.22491   0.23849
C          C       0.79617   0.77509   0.23849
C          C       0.79617   0.22491   0.76151
C          C       0.20383   0.77509   0.76151
C          C       0.70383   0.72491   0.23849
C          C       0.29617   0.27509   0.23849
C          C       0.29617   0.72491   0.76151
C          C       0.70383   0.27509   0.76151
C          C       0.71512   0.78514   0.75578
C          C       0.28488   0.21486   0.75578
C          C       0.28488   0.78514   0.24422
C          C       0.71512   0.21486   0.24422
C          C       0.21512   0.28514   0.75578
C          C       0.78488   0.71486   0.75578
C          C       0.78488   0.28514   0.24422
C          C       0.21512   0.71486   0.24422
C          C       0.28488   0.21486   0.24422
C          C       0.71512   0.78514   0.24422
C          C       0.71512   0.21486   0.75578
C          C       0.28488   0.78514   0.75578
C          C       0.78488   0.71486   0.24422
C          C       0.21512   0.28514   0.24422
C          C       0.21512   0.71486   0.75578
C          C       0.78488   0.28514   0.75578
C          C       0.66673   0.92618   0.45628
C          C       0.33327   0.07382   0.45628
C          C       0.33327   0.92618   0.54372
C          C       0.66673   0.07382   0.54372
C          C       0.16673   0.42618   0.45628
C          C       0.83327   0.57382   0.45628
C          C       0.83327   0.42618   0.54372
C          C       0.16673   0.57382   0.54372
C          C       0.33327   0.07382   0.54372
C          C       0.66673   0.92618   0.54372
C          C       0.66673   0.07382   0.45628
C          C       0.33327   0.92618   0.45628
C          C       0.83327   0.57382   0.54372
C          C       0.16673   0.42618   0.54372
C          C       0.16673   0.57382   0.45628
C          C       0.83327   0.42618   0.45628
C          C       0.62758   0.94115   0.45628
C          C       0.37242   0.05885   0.45628
C          C       0.37242   0.94115   0.54372
C          C       0.62758   0.05885   0.54372
C          C       0.12758   0.44115   0.45628
C          C       0.87242   0.55885   0.45628
C          C       0.87242   0.44115   0.54372
C          C       0.12758   0.55885   0.54372
C          C       0.37242   0.05885   0.54372
C          C       0.62758   0.94115   0.54372
C          C       0.62758   0.05885   0.45628
C          C       0.37242   0.94115   0.45628
C          C       0.87242   0.55885   0.54372
C          C       0.12758   0.44115   0.54372
C          C       0.12758   0.55885   0.45628
C          C       0.87242   0.44115   0.45628
H          H       0.58977   0.81875   0.44485
H          H       0.41023   0.18125   0.44485
H          H       0.41023   0.81875   0.55515
H          H       0.58977   0.18125   0.55515
H          H       0.08977   0.31875   0.44485
H          H       0.91023   0.68125   0.44485
H          H       0.91023   0.31875   0.55515
H          H       0.08977   0.68125   0.55515
H          H       0.41023   0.18125   0.55515
H          H       0.58977   0.81875   0.55515
H          H       0.58977   0.18125   0.44485
H          H       0.41023   0.81875   0.44485
H          H       0.91023   0.68125   0.55515
H          H       0.08977   0.31875   0.55515
H          H       0.08977   0.68125   0.44485
H          H       0.91023   0.31875   0.44485
H          H       0.59585   0.80429   0.36889
H          H       0.40415   0.19571   0.36889
H          H       0.40415   0.80429   0.63111
H          H       0.59585   0.19571   0.63111
H          H       0.09585   0.30429   0.36889
H          H       0.90415   0.69571   0.36889
H          H       0.90415   0.30429   0.63111
H          H       0.09585   0.69571   0.63111
H          H       0.40415   0.19571   0.63111
H          H       0.59585   0.80429   0.63111
H          H       0.59585   0.19571   0.36889
H          H       0.40415   0.80429   0.36889
H          H       0.90415   0.69571   0.63111
H          H       0.09585   0.30429   0.63111
H          H       0.09585   0.69571   0.36889
H          H       0.90415   0.30429   0.36889
H          H       0.91356   0.80143   0.38049
H          H       0.08644   0.19857   0.38049
H          H       0.08644   0.80143   0.61951
H          H       0.91356   0.19857   0.61951
H          H       0.41356   0.30143   0.38049
H          H       0.58644   0.69857   0.38049
H          H       0.58644   0.30143   0.61951
H          H       0.41356   0.69857   0.61951
H          H       0.08644   0.19857   0.61951
H          H       0.91356   0.80143   0.61951
H          H       0.91356   0.19857   0.38049
H          H       0.08644   0.80143   0.38049
H          H       0.58644   0.69857   0.61951
H          H       0.41356   0.30143   0.61951
H          H       0.41356   0.69857   0.38049
H          H       0.58644   0.30143   0.38049
H          H       0.90671   0.81606   0.45667
H          H       0.09329   0.18394   0.45667
H          H       0.09329   0.81606   0.54333
H          H       0.90671   0.18394   0.54333
H          H       0.40671   0.31606   0.45667
H          H       0.59329   0.68394   0.45667
H          H       0.59329   0.31606   0.54333
H          H       0.40671   0.68394   0.54333
H          H       0.09329   0.18394   0.54333
H          H       0.90671   0.81606   0.54333
H          H       0.90671   0.18394   0.45667
H          H       0.09329   0.81606   0.45667
H          H       0.59329   0.68394   0.54333
H          H       0.40671   0.31606   0.54333
H          H       0.40671   0.68394   0.45667
H          H       0.59329   0.31606   0.45667
H          H       0.71923   0.84616   0.42184
H          H       0.28077   0.15384   0.42184
H          H       0.28077   0.84616   0.57816
H          H       0.71923   0.15384   0.57816
H          H       0.21923   0.34616   0.42184
H          H       0.78077   0.65384   0.42184
H          H       0.78077   0.34616   0.57816
H          H       0.21923   0.65384   0.57816
H          H       0.28077   0.15384   0.57816
H          H       0.71923   0.84616   0.57816
H          H       0.71923   0.15384   0.42184
H          H       0.28077   0.84616   0.42184
H          H       0.78077   0.65384   0.57816
H          H       0.21923   0.34616   0.57816
H          H       0.21923   0.65384   0.42184
H          H       0.78077   0.34616   0.42184
H          H       0.67871   0.87369   0.42255
H          H       0.32129   0.12631   0.42255
H          H       0.32129   0.87369   0.57745
H          H       0.67871   0.12631   0.57745
H          H       0.17871   0.37369   0.42255
H          H       0.82129   0.62631   0.42255
H          H       0.82129   0.37369   0.57745
H          H       0.17871   0.62631   0.57745
H          H       0.32129   0.12631   0.57745
H          H       0.67871   0.87369   0.57745
H          H       0.67871   0.12631   0.42255
H          H       0.32129   0.87369   0.42255
H          H       0.82129   0.62631   0.57745
H          H       0.17871   0.37369   0.57745
H          H       0.17871   0.62631   0.42255
H          H       0.82129   0.37369   0.42255
H          H       0.63590   0.80165   0.29104
H          H       0.36410   0.19835   0.29104
H          H       0.36410   0.80165   0.70896
H          H       0.63590   0.19835   0.70896
H          H       0.13590   0.30165   0.29104
H          H       0.86410   0.69835   0.29104
H          H       0.86410   0.30165   0.70896
H          H       0.13590   0.69835   0.70896
H          H       0.36410   0.19835   0.70896
H          H       0.63590   0.80165   0.70896
H          H       0.63590   0.19835   0.29104
H          H       0.36410   0.80165   0.29104
H          H       0.86410   0.69835   0.70896
H          H       0.13590   0.30165   0.70896
H          H       0.13590   0.69835   0.29104
H          H       0.86410   0.30165   0.29104
H          H       0.58437   0.79437   0.78991
H          H       0.41563   0.20563   0.78991
H          H       0.41563   0.79437   0.21009
H          H       0.58437   0.20563   0.21009
H          H       0.08437   0.29437   0.78991
H          H       0.91563   0.70563   0.78991
H          H       0.91563   0.29437   0.21009
H          H       0.08437   0.70563   0.21009
H          H       0.41563   0.20563   0.21009
H          H       0.58437   0.79437   0.21009
H          H       0.58437   0.20563   0.78991
H          H       0.41563   0.79437   0.78991
H          H       0.91563   0.70563   0.21009
H          H       0.08437   0.29437   0.21009
H          H       0.08437   0.70563   0.78991
H          H       0.91563   0.29437   0.78991
H          H       0.59903   0.77852   0.86268
H          H       0.40097   0.22148   0.86268
H          H       0.40097   0.77852   0.13732
H          H       0.59903   0.22148   0.13732
H          H       0.09903   0.27852   0.86268
H          H       0.90097   0.72148   0.86268
H          H       0.90097   0.27852   0.13732
H          H       0.09903   0.72148   0.13732
H          H       0.40097   0.22148   0.13732
H          H       0.59903   0.77852   0.13732
H          H       0.59903   0.22148   0.86268
H          H       0.40097   0.77852   0.86268
H          H       0.90097   0.72148   0.13732
H          H       0.09903   0.27852   0.13732
H          H       0.09903   0.72148   0.86268
H          H       0.90097   0.27852   0.86268
H          H       0.86964   0.75876   0.80752
H          H       0.13036   0.24124   0.80752
H          H       0.13036   0.75876   0.19248
H          H       0.86964   0.24124   0.19248
H          H       0.36964   0.25876   0.80752
H          H       0.63036   0.74124   0.80752
H          H       0.63036   0.25876   0.19248
H          H       0.36964   0.74124   0.19248
H          H       0.13036   0.24124   0.19248
H          H       0.86964   0.75876   0.19248
H          H       0.86964   0.24124   0.80752
H          H       0.13036   0.75876   0.80752
H          H       0.63036   0.74124   0.19248
H          H       0.36964   0.25876   0.19248
H          H       0.36964   0.74124   0.80752
H          H       0.63036   0.25876   0.80752
H          H       0.85168   0.77400   0.73355
H          H       0.14832   0.22600   0.73355
H          H       0.14832   0.77400   0.26645
H          H       0.85168   0.22600   0.26645
H          H       0.35168   0.27400   0.73355
H          H       0.64832   0.72600   0.73355
H          H       0.64832   0.27400   0.26645
H          H       0.35168   0.72600   0.26645
H          H       0.14832   0.22600   0.26645
H          H       0.85168   0.77400   0.26645
H          H       0.85168   0.22600   0.73355
H          H       0.14832   0.77400   0.73355
H          H       0.64832   0.72600   0.26645
H          H       0.35168   0.27400   0.26645
H          H       0.35168   0.72600   0.73355
H          H       0.64832   0.27400   0.73355
H          H       0.67992   0.92036   0.42230
H          H       0.32008   0.07964   0.42230
H          H       0.32008   0.92036   0.57770
H          H       0.67992   0.07964   0.57770
H          H       0.17992   0.42036   0.42230
H          H       0.82008   0.57964   0.42230
H          H       0.82008   0.42036   0.57770
H          H       0.17992   0.57964   0.57770
H          H       0.32008   0.07964   0.57770
H          H       0.67992   0.92036   0.57770
H          H       0.67992   0.07964   0.42230
H          H       0.32008   0.92036   0.42230
H          H       0.82008   0.57964   0.57770
H          H       0.17992   0.42036   0.57770
H          H       0.17992   0.57964   0.42230
H          H       0.82008   0.42036   0.42230
H          H       0.60998   0.94669   0.42230
H          H       0.39002   0.05331   0.42230
H          H       0.39002   0.94669   0.57770
H          H       0.60998   0.05331   0.57770
H          H       0.10998   0.44669   0.42230
H          H       0.89002   0.55331   0.42230
H          H       0.89002   0.44669   0.57770
H          H       0.10998   0.55331   0.57770
H          H       0.39002   0.05331   0.57770
H          H       0.60998   0.94669   0.57770
H          H       0.60998   0.05331   0.42230
H          H       0.39002   0.94669   0.42230
H          H       0.89002   0.55331   0.57770
H          H       0.10998   0.44669   0.57770
H          H       0.10998   0.55331   0.42230
H          H       0.89002   0.44669   0.42230
C          C       0.75000   0.75000   0.02429
C          C       0.25000   0.25000   0.02429
C          C       0.25000   0.75000   0.97571
C          C       0.75000   0.25000   0.97571
C          C       0.25000   0.25000   0.97571
C          C       0.75000   0.75000   0.97571
C          C       0.75000   0.25000   0.02429
C          C       0.25000   0.75000   0.02429
S          S       0.61445   0.01871   0.50000
S          S       0.38555   0.98129   0.50000
S          S       0.38555   0.01871   0.50000
S          S       0.61445   0.98129   0.50000
S          S       0.11445   0.51871   0.50000
S          S       0.88555   0.48129   0.50000
S          S       0.88555   0.51871   0.50000
S          S       0.11445   0.48129   0.50000
C          C       0.54952   0.03686   0.50000
C          C       0.45048   0.96314   0.50000
C          C       0.45048   0.03686   0.50000
C          C       0.54952   0.96314   0.50000
C          C       0.04952   0.53686   0.50000
C          C       0.95048   0.46314   0.50000
C          C       0.95048   0.53686   0.50000
C          C       0.04952   0.46314   0.50000
C          C       0.67626   0.87553   0.50000
C          C       0.32374   0.12447   0.50000
C          C       0.32374   0.87553   0.50000
C          C       0.67626   0.12447   0.50000
C          C       0.17626   0.37553   0.50000
C          C       0.82374   0.62447   0.50000
C          C       0.82374   0.37553   0.50000
C          C       0.17626   0.62447   0.50000
C          C       0.72077   0.84360   0.50000
C          C       0.27923   0.15640   0.50000
C          C       0.27923   0.84360   0.50000
C          C       0.72077   0.15640   0.50000
C          C       0.22077   0.34360   0.50000
C          C       0.77923   0.65640   0.50000
C          C       0.77923   0.34360   0.50000
C          C       0.22077   0.65640   0.50000
C          C       0.71660   0.90239   0.50000
C          C       0.28340   0.09761   0.50000
C          C       0.28340   0.90239   0.50000
C          C       0.71660   0.09761   0.50000
C          C       0.21660   0.40239   0.50000
C          C       0.78340   0.59761   0.50000
C          C       0.78340   0.40239   0.50000
C          C       0.21660   0.59761   0.50000
N          N       0.65039   0.89154   0.50000
N          N       0.34961   0.10846   0.50000
N          N       0.34961   0.89154   0.50000
N          N       0.65039   0.10846   0.50000
N          N       0.15039   0.39154   0.50000
N          N       0.84961   0.60846   0.50000
N          N       0.84961   0.39154   0.50000
N          N       0.15039   0.60846   0.50000
C          C       0.60630   0.94859   0.50000
C          C       0.39370   0.05141   0.50000
C          C       0.39370   0.94859   0.50000
C          C       0.60630   0.05141   0.50000
C          C       0.10630   0.44859   0.50000
C          C       0.89370   0.55141   0.50000
C          C       0.89370   0.44859   0.50000
C          C       0.10630   0.55141   0.50000
C          C       0.68494   0.91857   0.50000
C          C       0.31506   0.08143   0.50000
C          C       0.31506   0.91857   0.50000
C          C       0.68494   0.08143   0.50000
C          C       0.18494   0.41857   0.50000
C          C       0.81506   0.58143   0.50000
C          C       0.81506   0.41857   0.50000
C          C       0.18494   0.58143   0.50000
N          N       0.24323   0.32715   0.50000
N          N       0.75677   0.67285   0.50000
N          N       0.75677   0.32715   0.50000
N          N       0.24323   0.67285   0.50000
N          N       0.74323   0.82715   0.50000
N          N       0.25677   0.17285   0.50000
N          N       0.25677   0.82715   0.50000
N          N       0.74323   0.17285   0.50000
H          H       0.29490   0.39964   0.50000
H          H       0.70510   0.60036   0.50000
H          H       0.70510   0.39964   0.50000
H          H       0.29490   0.60036   0.50000
H          H       0.79490   0.89964   0.50000
H          H       0.20510   0.10036   0.50000
H          H       0.20510   0.89964   0.50000
H          H       0.79490   0.10036   0.50000
C          C       0.50000   0.00780   0.50000
C          C       0.50000   0.99220   0.50000
C          C       0.00000   0.50780   0.50000
C          C       0.00000   0.49220   0.50000
