data_crystal

_cell_length_a    50.92090
_cell_length_b    43.26340
_cell_length_c    6.96740
_cell_angle_alpha 90.00000
_cell_angle_beta  90.00000
_cell_angle_gamma 90.00000

_symmetry_space_group_name_Hall 'P 1'
_symmetry_space_group_name_H-M  'P 1'

loop_
_symmetry_equiv_pos_as_xyz
 'x,y,z'

loop_
_atom_site_label
_atom_site_type_symbol
_atom_site_fract_x
_atom_site_fract_y
_atom_site_fract_z
C          C       0.48679   0.00000   0.25000
C          C       0.51321   0.00000   0.25000
C          C       0.98679   0.50000   0.25000
C          C       0.01321   0.50000   0.25000
C          C       0.08193   0.57157   0.25000
C          C       0.91807   0.42843   0.25000
C          C       0.91807   0.57157   0.25000
C          C       0.08193   0.42843   0.25000
C          C       0.58193   0.07157   0.25000
C          C       0.41807   0.92843   0.25000
C          C       0.41807   0.07157   0.25000
C          C       0.58193   0.92843   0.25000
H          H       0.06243   0.58124   0.25000
H          H       0.93757   0.41876   0.25000
H          H       0.93757   0.58124   0.25000
H          H       0.06243   0.41876   0.25000
H          H       0.56243   0.08124   0.25000
H          H       0.43757   0.91876   0.25000
H          H       0.43757   0.08124   0.25000
H          H       0.56243   0.91876   0.25000
C          C       0.10243   0.59310   0.25000
C          C       0.89757   0.40690   0.25000
C          C       0.89757   0.59310   0.25000
C          C       0.10243   0.40690   0.25000
C          C       0.60243   0.09310   0.25000
C          C       0.39757   0.90690   0.25000
C          C       0.39757   0.09310   0.25000
C          C       0.60243   0.90690   0.25000
H          H       0.09775   0.61751   0.25000
H          H       0.90225   0.38249   0.25000
H          H       0.90225   0.61751   0.25000
H          H       0.09775   0.38249   0.25000
H          H       0.59775   0.11751   0.25000
H          H       0.40225   0.88249   0.25000
H          H       0.40225   0.11751   0.25000
H          H       0.59775   0.88249   0.25000
C          C       0.12857   0.58316   0.25000
C          C       0.87143   0.41684   0.25000
C          C       0.87143   0.58316   0.25000
C          C       0.12857   0.41684   0.25000
C          C       0.62857   0.08316   0.25000
C          C       0.37143   0.91684   0.25000
C          C       0.37143   0.08316   0.25000
C          C       0.62857   0.91684   0.25000
C          C       0.13376   0.55156   0.25000
C          C       0.86624   0.44844   0.25000
C          C       0.86624   0.55156   0.25000
C          C       0.13376   0.44844   0.25000
C          C       0.63376   0.05156   0.25000
C          C       0.36624   0.94844   0.25000
C          C       0.36624   0.05156   0.25000
C          C       0.63376   0.94844   0.25000
H          H       0.15376   0.54308   0.25000
H          H       0.84624   0.45692   0.25000
H          H       0.84624   0.54308   0.25000
H          H       0.15376   0.45692   0.25000
H          H       0.65376   0.04308   0.25000
H          H       0.34624   0.95692   0.25000
H          H       0.34624   0.04308   0.25000
H          H       0.65376   0.95692   0.25000
C          C       0.11309   0.53044   0.25000
C          C       0.88691   0.46956   0.25000
C          C       0.88691   0.53044   0.25000
C          C       0.11309   0.46956   0.25000
C          C       0.61309   0.03044   0.25000
C          C       0.38691   0.96956   0.25000
C          C       0.38691   0.03044   0.25000
C          C       0.61309   0.96956   0.25000
C          C       0.08672   0.53915   0.25000
C          C       0.91328   0.46085   0.25000
C          C       0.91328   0.53915   0.25000
C          C       0.08672   0.46085   0.25000
C          C       0.58672   0.03915   0.25000
C          C       0.41328   0.96085   0.25000
C          C       0.41328   0.03915   0.25000
C          C       0.58672   0.96085   0.25000
N          N       0.14698   0.63467   0.25000
N          N       0.85302   0.36533   0.25000
N          N       0.85302   0.63467   0.25000
N          N       0.14698   0.36533   0.25000
N          N       0.64698   0.13467   0.25000
N          N       0.35302   0.86533   0.25000
N          N       0.35302   0.13467   0.25000
N          N       0.64698   0.86533   0.25000
C          C       0.15066   0.60503   0.25000
C          C       0.84934   0.39497   0.25000
C          C       0.84934   0.60503   0.25000
C          C       0.15066   0.39497   0.25000
C          C       0.65066   0.10503   0.25000
C          C       0.34934   0.89497   0.25000
C          C       0.34934   0.10503   0.25000
C          C       0.65066   0.89497   0.25000
C          C       0.16156   0.68822   0.25000
C          C       0.83844   0.31178   0.25000
C          C       0.83844   0.68822   0.25000
C          C       0.16156   0.31178   0.25000
C          C       0.66156   0.18822   0.25000
C          C       0.33844   0.81178   0.25000
C          C       0.33844   0.18822   0.25000
C          C       0.66156   0.81178   0.25000
H          H       0.14116   0.69531   0.25000
H          H       0.85884   0.30469   0.25000
H          H       0.85884   0.69531   0.25000
H          H       0.14116   0.30469   0.25000
H          H       0.64116   0.19531   0.25000
H          H       0.35884   0.80469   0.25000
H          H       0.35884   0.19531   0.25000
H          H       0.64116   0.80469   0.25000
C          C       0.18125   0.71071   0.25000
C          C       0.81875   0.28929   0.25000
C          C       0.81875   0.71071   0.25000
C          C       0.18125   0.28929   0.25000
C          C       0.68125   0.21071   0.25000
C          C       0.31875   0.78929   0.25000
C          C       0.31875   0.21071   0.25000
C          C       0.68125   0.78929   0.25000
H          H       0.17459   0.73429   0.25000
H          H       0.82541   0.26571   0.25000
H          H       0.82541   0.73429   0.25000
H          H       0.17459   0.26571   0.25000
H          H       0.67459   0.23429   0.25000
H          H       0.32541   0.76571   0.25000
H          H       0.32541   0.23429   0.25000
H          H       0.67459   0.76571   0.25000
C          C       0.20820   0.70253   0.25000
C          C       0.79180   0.29747   0.25000
C          C       0.79180   0.70253   0.25000
C          C       0.20820   0.29747   0.25000
C          C       0.70820   0.20253   0.25000
C          C       0.29180   0.79747   0.25000
C          C       0.29180   0.20253   0.25000
C          C       0.70820   0.79747   0.25000
C          C       0.21417   0.67054   0.25000
C          C       0.78583   0.32946   0.25000
C          C       0.78583   0.67054   0.25000
C          C       0.21417   0.32946   0.25000
C          C       0.71417   0.17054   0.25000
C          C       0.28583   0.82946   0.25000
C          C       0.28583   0.17054   0.25000
C          C       0.71417   0.82946   0.25000
H          H       0.23396   0.66188   0.25000
H          H       0.76604   0.33812   0.25000
H          H       0.76604   0.66188   0.25000
H          H       0.23396   0.33812   0.25000
H          H       0.73396   0.16188   0.25000
H          H       0.26604   0.83812   0.25000
H          H       0.26604   0.16188   0.25000
H          H       0.73396   0.83812   0.25000
C          C       0.19439   0.64817   0.25000
C          C       0.80561   0.35183   0.25000
C          C       0.80561   0.64817   0.25000
C          C       0.19439   0.35183   0.25000
C          C       0.69439   0.14817   0.25000
C          C       0.30561   0.85183   0.25000
C          C       0.30561   0.14817   0.25000
C          C       0.69439   0.85183   0.25000
H          H       0.19991   0.62401   0.25000
H          H       0.80009   0.37599   0.25000
H          H       0.80009   0.62401   0.25000
H          H       0.19991   0.37599   0.25000
H          H       0.69991   0.12401   0.25000
H          H       0.30009   0.87599   0.25000
H          H       0.30009   0.12401   0.25000
H          H       0.69991   0.87599   0.25000
C          C       0.16788   0.65690   0.25000
C          C       0.83212   0.34310   0.25000
C          C       0.83212   0.65690   0.25000
C          C       0.16788   0.34310   0.25000
C          C       0.66788   0.15690   0.25000
C          C       0.33212   0.84310   0.25000
C          C       0.33212   0.15690   0.25000
C          C       0.66788   0.84310   0.25000
C          C       0.25650   0.71882   0.25000
C          C       0.74350   0.28118   0.25000
C          C       0.74350   0.71882   0.25000
C          C       0.25650   0.28118   0.25000
C          C       0.75650   0.21882   0.25000
C          C       0.24350   0.78118   0.25000
C          C       0.24350   0.21882   0.25000
C          C       0.75650   0.78118   0.25000
H          H       0.26310   0.69521   0.25000
H          H       0.73690   0.30479   0.25000
H          H       0.73690   0.69521   0.25000
H          H       0.26310   0.30479   0.25000
H          H       0.76310   0.19521   0.25000
H          H       0.23690   0.80479   0.25000
H          H       0.23690   0.19521   0.25000
H          H       0.76310   0.80479   0.25000
C          C       0.22376   0.75876   0.25000
C          C       0.77624   0.24124   0.25000
C          C       0.77624   0.75876   0.25000
C          C       0.22376   0.24124   0.25000
C          C       0.72376   0.25876   0.25000
C          C       0.27624   0.74124   0.25000
C          C       0.27624   0.25876   0.25000
C          C       0.72376   0.74124   0.25000
H          H       0.20395   0.76737   0.25000
H          H       0.79605   0.23263   0.25000
H          H       0.79605   0.76737   0.25000
H          H       0.20395   0.23263   0.25000
H          H       0.70395   0.26737   0.25000
H          H       0.29605   0.73263   0.25000
H          H       0.29605   0.26737   0.25000
H          H       0.70395   0.73263   0.25000
C          C       0.22964   0.72688   0.25000
C          C       0.77036   0.27312   0.25000
C          C       0.77036   0.72688   0.25000
C          C       0.22964   0.27312   0.25000
C          C       0.72964   0.22688   0.25000
C          C       0.27036   0.77312   0.25000
C          C       0.27036   0.22688   0.25000
C          C       0.72964   0.77312   0.25000
C          C       0.43599   0.01604   0.25000
C          C       0.56401   0.98396   0.25000
C          C       0.56401   0.01604   0.25000
C          C       0.43599   0.98396   0.25000
C          C       0.93599   0.51604   0.25000
C          C       0.06401   0.48396   0.25000
C          C       0.06401   0.51604   0.25000
C          C       0.93599   0.48396   0.25000
S          S       0.46825   0.03470   0.25000
S          S       0.53175   0.96530   0.25000
S          S       0.53175   0.03470   0.25000
S          S       0.46825   0.96530   0.25000
S          S       0.96825   0.53470   0.25000
S          S       0.03175   0.46530   0.25000
S          S       0.03175   0.53470   0.25000
S          S       0.96825   0.46530   0.25000
H          H       0.17830   0.59182   0.25000
H          H       0.82170   0.40818   0.25000
H          H       0.82170   0.59182   0.25000
H          H       0.17830   0.40818   0.25000
H          H       0.67830   0.09182   0.25000
H          H       0.32170   0.90818   0.25000
H          H       0.32170   0.09182   0.25000
H          H       0.67830   0.90818   0.25000
H          H       0.12058   0.50687   0.25000
H          H       0.87942   0.49313   0.25000
H          H       0.87942   0.50687   0.25000
H          H       0.12058   0.49313   0.25000
H          H       0.62058   0.00687   0.25000
H          H       0.37942   0.99313   0.25000
H          H       0.37942   0.00687   0.25000
H          H       0.62058   0.99313   0.25000
C          C       0.48679   0.00000   0.75000
C          C       0.51321   0.00000   0.75000
C          C       0.98679   0.50000   0.75000
C          C       0.01321   0.50000   0.75000
C          C       0.08193   0.57157   0.75000
C          C       0.91807   0.42843   0.75000
C          C       0.91807   0.57157   0.75000
C          C       0.08193   0.42843   0.75000
C          C       0.58193   0.07157   0.75000
C          C       0.41807   0.92843   0.75000
C          C       0.41807   0.07157   0.75000
C          C       0.58193   0.92843   0.75000
H          H       0.06243   0.58124   0.75000
H          H       0.93757   0.41876   0.75000
H          H       0.93757   0.58124   0.75000
H          H       0.06243   0.41876   0.75000
H          H       0.56243   0.08124   0.75000
H          H       0.43757   0.91876   0.75000
H          H       0.43757   0.08124   0.75000
H          H       0.56243   0.91876   0.75000
C          C       0.10243   0.59310   0.75000
C          C       0.89757   0.40690   0.75000
C          C       0.89757   0.59310   0.75000
C          C       0.10243   0.40690   0.75000
C          C       0.60243   0.09310   0.75000
C          C       0.39757   0.90690   0.75000
C          C       0.39757   0.09310   0.75000
C          C       0.60243   0.90690   0.75000
H          H       0.09775   0.61751   0.75000
H          H       0.90225   0.38249   0.75000
H          H       0.90225   0.61751   0.75000
H          H       0.09775   0.38249   0.75000
H          H       0.59775   0.11751   0.75000
H          H       0.40225   0.88249   0.75000
H          H       0.40225   0.11751   0.75000
H          H       0.59775   0.88249   0.75000
C          C       0.12857   0.58316   0.75000
C          C       0.87143   0.41684   0.75000
C          C       0.87143   0.58316   0.75000
C          C       0.12857   0.41684   0.75000
C          C       0.62857   0.08316   0.75000
C          C       0.37143   0.91684   0.75000
C          C       0.37143   0.08316   0.75000
C          C       0.62857   0.91684   0.75000
C          C       0.13376   0.55156   0.75000
C          C       0.86624   0.44844   0.75000
C          C       0.86624   0.55156   0.75000
C          C       0.13376   0.44844   0.75000
C          C       0.63376   0.05156   0.75000
C          C       0.36624   0.94844   0.75000
C          C       0.36624   0.05156   0.75000
C          C       0.63376   0.94844   0.75000
H          H       0.15376   0.54308   0.75000
H          H       0.84624   0.45692   0.75000
H          H       0.84624   0.54308   0.75000
H          H       0.15376   0.45692   0.75000
H          H       0.65376   0.04308   0.75000
H          H       0.34624   0.95692   0.75000
H          H       0.34624   0.04308   0.75000
H          H       0.65376   0.95692   0.75000
C          C       0.11309   0.53044   0.75000
C          C       0.88691   0.46956   0.75000
C          C       0.88691   0.53044   0.75000
C          C       0.11309   0.46956   0.75000
C          C       0.61309   0.03044   0.75000
C          C       0.38691   0.96956   0.75000
C          C       0.38691   0.03044   0.75000
C          C       0.61309   0.96956   0.75000
C          C       0.08672   0.53915   0.75000
C          C       0.91328   0.46085   0.75000
C          C       0.91328   0.53915   0.75000
C          C       0.08672   0.46085   0.75000
C          C       0.58672   0.03915   0.75000
C          C       0.41328   0.96085   0.75000
C          C       0.41328   0.03915   0.75000
C          C       0.58672   0.96085   0.75000
N          N       0.14698   0.63467   0.75000
N          N       0.85302   0.36533   0.75000
N          N       0.85302   0.63467   0.75000
N          N       0.14698   0.36533   0.75000
N          N       0.64698   0.13467   0.75000
N          N       0.35302   0.86533   0.75000
N          N       0.35302   0.13467   0.75000
N          N       0.64698   0.86533   0.75000
C          C       0.15066   0.60503   0.75000
C          C       0.84934   0.39497   0.75000
C          C       0.84934   0.60503   0.75000
C          C       0.15066   0.39497   0.75000
C          C       0.65066   0.10503   0.75000
C          C       0.34934   0.89497   0.75000
C          C       0.34934   0.10503   0.75000
C          C       0.65066   0.89497   0.75000
C          C       0.16156   0.68822   0.75000
C          C       0.83844   0.31178   0.75000
C          C       0.83844   0.68822   0.75000
C          C       0.16156   0.31178   0.75000
C          C       0.66156   0.18822   0.75000
C          C       0.33844   0.81178   0.75000
C          C       0.33844   0.18822   0.75000
C          C       0.66156   0.81178   0.75000
H          H       0.14116   0.69531   0.75000
H          H       0.85884   0.30469   0.75000
H          H       0.85884   0.69531   0.75000
H          H       0.14116   0.30469   0.75000
H          H       0.64116   0.19531   0.75000
H          H       0.35884   0.80469   0.75000
H          H       0.35884   0.19531   0.75000
H          H       0.64116   0.80469   0.75000
C          C       0.18125   0.71071   0.75000
C          C       0.81875   0.28929   0.75000
C          C       0.81875   0.71071   0.75000
C          C       0.18125   0.28929   0.75000
C          C       0.68125   0.21071   0.75000
C          C       0.31875   0.78929   0.75000
C          C       0.31875   0.21071   0.75000
C          C       0.68125   0.78929   0.75000
H          H       0.17459   0.73429   0.75000
H          H       0.82541   0.26571   0.75000
H          H       0.82541   0.73429   0.75000
H          H       0.17459   0.26571   0.75000
H          H       0.67459   0.23429   0.75000
H          H       0.32541   0.76571   0.75000
H          H       0.32541   0.23429   0.75000
H          H       0.67459   0.76571   0.75000
C          C       0.20820   0.70253   0.75000
C          C       0.79180   0.29747   0.75000
C          C       0.79180   0.70253   0.75000
C          C       0.20820   0.29747   0.75000
C          C       0.70820   0.20253   0.75000
C          C       0.29180   0.79747   0.75000
C          C       0.29180   0.20253   0.75000
C          C       0.70820   0.79747   0.75000
C          C       0.21417   0.67054   0.75000
C          C       0.78583   0.32946   0.75000
C          C       0.78583   0.67054   0.75000
C          C       0.21417   0.32946   0.75000
C          C       0.71417   0.17054   0.75000
C          C       0.28583   0.82946   0.75000
C          C       0.28583   0.17054   0.75000
C          C       0.71417   0.82946   0.75000
H          H       0.23396   0.66188   0.75000
H          H       0.76604   0.33812   0.75000
H          H       0.76604   0.66188   0.75000
H          H       0.23396   0.33812   0.75000
H          H       0.73396   0.16188   0.75000
H          H       0.26604   0.83812   0.75000
H          H       0.26604   0.16188   0.75000
H          H       0.73396   0.83812   0.75000
C          C       0.19439   0.64817   0.75000
C          C       0.80561   0.35183   0.75000
C          C       0.80561   0.64817   0.75000
C          C       0.19439   0.35183   0.75000
C          C       0.69439   0.14817   0.75000
C          C       0.30561   0.85183   0.75000
C          C       0.30561   0.14817   0.75000
C          C       0.69439   0.85183   0.75000
H          H       0.19991   0.62401   0.75000
H          H       0.80009   0.37599   0.75000
H          H       0.80009   0.62401   0.75000
H          H       0.19991   0.37599   0.75000
H          H       0.69991   0.12401   0.75000
H          H       0.30009   0.87599   0.75000
H          H       0.30009   0.12401   0.75000
H          H       0.69991   0.87599   0.75000
C          C       0.16788   0.65690   0.75000
C          C       0.83212   0.34310   0.75000
C          C       0.83212   0.65690   0.75000
C          C       0.16788   0.34310   0.75000
C          C       0.66788   0.15690   0.75000
C          C       0.33212   0.84310   0.75000
C          C       0.33212   0.15690   0.75000
C          C       0.66788   0.84310   0.75000
C          C       0.25650   0.71882   0.75000
C          C       0.74350   0.28118   0.75000
C          C       0.74350   0.71882   0.75000
C          C       0.25650   0.28118   0.75000
C          C       0.75650   0.21882   0.75000
C          C       0.24350   0.78118   0.75000
C          C       0.24350   0.21882   0.75000
C          C       0.75650   0.78118   0.75000
H          H       0.26310   0.69521   0.75000
H          H       0.73690   0.30479   0.75000
H          H       0.73690   0.69521   0.75000
H          H       0.26310   0.30479   0.75000
H          H       0.76310   0.19521   0.75000
H          H       0.23690   0.80479   0.75000
H          H       0.23690   0.19521   0.75000
H          H       0.76310   0.80479   0.75000
C          C       0.22376   0.75876   0.75000
C          C       0.77624   0.24124   0.75000
C          C       0.77624   0.75876   0.75000
C          C       0.22376   0.24124   0.75000
C          C       0.72376   0.25876   0.75000
C          C       0.27624   0.74124   0.75000
C          C       0.27624   0.25876   0.75000
C          C       0.72376   0.74124   0.75000
H          H       0.20395   0.76737   0.75000
H          H       0.79605   0.23263   0.75000
H          H       0.79605   0.76737   0.75000
H          H       0.20395   0.23263   0.75000
H          H       0.70395   0.26737   0.75000
H          H       0.29605   0.73263   0.75000
H          H       0.29605   0.26737   0.75000
H          H       0.70395   0.73263   0.75000
C          C       0.22964   0.72688   0.75000
C          C       0.77036   0.27312   0.75000
C          C       0.77036   0.72688   0.75000
C          C       0.22964   0.27312   0.75000
C          C       0.72964   0.22688   0.75000
C          C       0.27036   0.77312   0.75000
C          C       0.27036   0.22688   0.75000
C          C       0.72964   0.77312   0.75000
C          C       0.43599   0.01604   0.75000
C          C       0.56401   0.98396   0.75000
C          C       0.56401   0.01604   0.75000
C          C       0.43599   0.98396   0.75000
C          C       0.93599   0.51604   0.75000
C          C       0.06401   0.48396   0.75000
C          C       0.06401   0.51604   0.75000
C          C       0.93599   0.48396   0.75000
S          S       0.46825   0.03470   0.75000
S          S       0.53175   0.96530   0.75000
S          S       0.53175   0.03470   0.75000
S          S       0.46825   0.96530   0.75000
S          S       0.96825   0.53470   0.75000
S          S       0.03175   0.46530   0.75000
S          S       0.03175   0.53470   0.75000
S          S       0.96825   0.46530   0.75000
H          H       0.17830   0.59182   0.75000
H          H       0.82170   0.40818   0.75000
H          H       0.82170   0.59182   0.75000
H          H       0.17830   0.40818   0.75000
H          H       0.67830   0.09182   0.75000
H          H       0.32170   0.90818   0.75000
H          H       0.32170   0.09182   0.75000
H          H       0.67830   0.90818   0.75000
H          H       0.12058   0.50687   0.75000
H          H       0.87942   0.49313   0.75000
H          H       0.87942   0.50687   0.75000
H          H       0.12058   0.49313   0.75000
H          H       0.62058   0.00687   0.75000
H          H       0.37942   0.99313   0.75000
H          H       0.37942   0.00687   0.75000
H          H       0.62058   0.99313   0.75000
