data_crystal
 
_cell_length_a    46.33000
_cell_length_b    46.33000
_cell_length_c    3.42000
_cell_angle_alpha 90.00000
_cell_angle_beta  90.00000
_cell_angle_gamma 120.00000
 
_symmetry_space_group_name_Hall 'P 1'
_symmetry_space_group_name_H-M  'P 1'
 
loop_
_symmetry_equiv_pos_as_xyz
 'x,y,z' 
 
loop_
_atom_site_label
_atom_site_type_symbol
_atom_site_fract_x
_atom_site_fract_y
_atom_site_fract_z
_atom_site_charge
C          C       0.01880   0.56390   0.50000   0.0000000000
C          C       0.03650   0.54610   0.50000   0.0000000000
C          C       0.07210   0.56390   0.50000   0.0000000000
C          C       0.18020   0.60670   0.50000   0.0000000000
C          C       0.21090   0.63730   0.50000   0.0000000000
C          C       0.21100   0.66820   0.50000   0.0000000000
C          C       0.23940   0.69660   0.50000   0.0000000000
C          C       0.27030   0.69660   0.50000   0.0000000000
C          C       0.27030   0.66580   0.50000   0.0000000000
C          C       0.24180   0.63730   0.50000   0.0000000000
O          O       0.14380   0.59870   0.50000   0.0000000000
H          H       0.03202   0.59088   0.50000   0.0000000000
H          H       0.08582   0.59098   0.50000   0.0000000000
H          H       0.18767   0.66833   0.50000   0.0000000000
H          H       0.23742   0.71871   0.50000   0.0000000000
H          H       0.29270   0.66659   0.50000   0.0000000000
C          C       0.43610   0.45490   0.50000   0.0000000000
C          C       0.45390   0.49040   0.50000   0.0000000000
C          C       0.43610   0.50820   0.50000   0.0000000000
C          C       0.39330   0.57350   0.50000   0.0000000000
C          C       0.36270   0.57360   0.50000   0.0000000000
C          C       0.33180   0.54280   0.50000   0.0000000000
C          C       0.30340   0.54280   0.50000   0.0000000000
C          C       0.30340   0.57370   0.50000   0.0000000000
C          C       0.33420   0.60450   0.50000   0.0000000000
C          C       0.36270   0.60450   0.50000   0.0000000000
O          O       0.40130   0.54510   0.50000   0.0000000000
H          H       0.40912   0.44114   0.50000   0.0000000000
H          H       0.40902   0.49484   0.50000   0.0000000000
H          H       0.33167   0.51934   0.50000   0.0000000000
H          H       0.28129   0.51870   0.50000   0.0000000000
H          H       0.33341   0.62611   0.50000   0.0000000000
C          C       0.54510   0.98120   0.50000   0.0000000000
C          C       0.50960   0.96350   0.50000   0.0000000000
C          C       0.49180   0.92790   0.50000   0.0000000000
C          C       0.42650   0.81980   0.50000   0.0000000000
C          C       0.42640   0.78910   0.50000   0.0000000000
C          C       0.45720   0.78900   0.50000   0.0000000000
C          C       0.45720   0.76060   0.50000   0.0000000000
C          C       0.42630   0.72970   0.50000   0.0000000000
C          C       0.39550   0.72970   0.50000   0.0000000000
C          C       0.39550   0.75820   0.50000   0.0000000000
O          O       0.45490   0.85620   0.50000   0.0000000000
H          H       0.55886   0.96798   0.50000   0.0000000000
H          H       0.50516   0.91418   0.50000   0.0000000000
H          H       0.48066   0.81233   0.50000   0.0000000000
H          H       0.48130   0.76258   0.50000   0.0000000000
H          H       0.37389   0.70730   0.50000   0.0000000000
C          C       0.98120   0.43610   0.50000   0.0000000000
C          C       0.96350   0.45390   0.50000   0.0000000000
C          C       0.92790   0.43610   0.50000   0.0000000000
C          C       0.81980   0.39330   0.50000   0.0000000000
C          C       0.78910   0.36270   0.50000   0.0000000000
C          C       0.78900   0.33180   0.50000   0.0000000000
C          C       0.76060   0.30340   0.50000   0.0000000000
C          C       0.72970   0.30340   0.50000   0.0000000000
C          C       0.72970   0.33420   0.50000   0.0000000000
C          C       0.75820   0.36270   0.50000   0.0000000000
O          O       0.85620   0.40130   0.50000   0.0000000000
H          H       0.96798   0.40912   0.50000   0.0000000000
H          H       0.91418   0.40902   0.50000   0.0000000000
H          H       0.81233   0.33167   0.50000   0.0000000000
H          H       0.76258   0.28129   0.50000   0.0000000000
H          H       0.70730   0.33341   0.50000   0.0000000000
C          C       0.56390   0.54510   0.50000   0.0000000000
C          C       0.54610   0.50960   0.50000   0.0000000000
C          C       0.56390   0.49180   0.50000   0.0000000000
C          C       0.60670   0.42650   0.50000   0.0000000000
C          C       0.63730   0.42640   0.50000   0.0000000000
C          C       0.66820   0.45720   0.50000   0.0000000000
C          C       0.69660   0.45720   0.50000   0.0000000000
C          C       0.69660   0.42630   0.50000   0.0000000000
C          C       0.66580   0.39550   0.50000   0.0000000000
C          C       0.63730   0.39550   0.50000   0.0000000000
O          O       0.59870   0.45490   0.50000   0.0000000000
H          H       0.59088   0.55886   0.50000   0.0000000000
H          H       0.59098   0.50516   0.50000   0.0000000000
H          H       0.66833   0.48066   0.50000   0.0000000000
H          H       0.71871   0.48130   0.50000   0.0000000000
H          H       0.66659   0.37389   0.50000   0.0000000000
C          C       0.45490   0.01880   0.50000   0.0000000000
C          C       0.49040   0.03650   0.50000   0.0000000000
C          C       0.50820   0.07210   0.50000   0.0000000000
C          C       0.57350   0.18020   0.50000   0.0000000000
C          C       0.57360   0.21090   0.50000   0.0000000000
C          C       0.54280   0.21100   0.50000   0.0000000000
C          C       0.54280   0.23940   0.50000   0.0000000000
C          C       0.57370   0.27030   0.50000   0.0000000000
C          C       0.60450   0.27030   0.50000   0.0000000000
C          C       0.60450   0.24180   0.50000   0.0000000000
O          O       0.54510   0.14380   0.50000   0.0000000000
H          H       0.44114   0.03202   0.50000   0.0000000000
H          H       0.49484   0.08582   0.50000   0.0000000000
H          H       0.51934   0.18767   0.50000   0.0000000000
H          H       0.51870   0.23742   0.50000   0.0000000000
H          H       0.62611   0.29270   0.50000   0.0000000000
C          C       0.56390   0.01880   0.50000   0.0000000000
C          C       0.54610   0.03650   0.50000   0.0000000000
C          C       0.56390   0.07210   0.50000   0.0000000000
C          C       0.60670   0.18020   0.50000   0.0000000000
C          C       0.63730   0.21090   0.50000   0.0000000000
C          C       0.66820   0.21100   0.50000   0.0000000000
C          C       0.69660   0.23940   0.50000   0.0000000000
C          C       0.69660   0.27030   0.50000   0.0000000000
C          C       0.66580   0.27030   0.50000   0.0000000000
C          C       0.63730   0.24180   0.50000   0.0000000000
O          O       0.59870   0.14380   0.50000   0.0000000000
H          H       0.59088   0.03202   0.50000   0.0000000000
H          H       0.59098   0.08582   0.50000   0.0000000000
H          H       0.66833   0.18767   0.50000   0.0000000000
H          H       0.71871   0.23742   0.50000   0.0000000000
H          H       0.66659   0.29270   0.50000   0.0000000000
C          C       0.45490   0.43610   0.50000   0.0000000000
C          C       0.49040   0.45390   0.50000   0.0000000000
C          C       0.50820   0.43610   0.50000   0.0000000000
C          C       0.57350   0.39330   0.50000   0.0000000000
C          C       0.57360   0.36270   0.50000   0.0000000000
C          C       0.54280   0.33180   0.50000   0.0000000000
C          C       0.54280   0.30340   0.50000   0.0000000000
C          C       0.57370   0.30340   0.50000   0.0000000000
C          C       0.60450   0.33420   0.50000   0.0000000000
C          C       0.60450   0.36270   0.50000   0.0000000000
O          O       0.54510   0.40130   0.50000   0.0000000000
H          H       0.44114   0.40912   0.50000   0.0000000000
H          H       0.49484   0.40902   0.50000   0.0000000000
H          H       0.51934   0.33167   0.50000   0.0000000000
H          H       0.51870   0.28129   0.50000   0.0000000000
H          H       0.62611   0.33341   0.50000   0.0000000000
C          C       0.98120   0.54510   0.50000   0.0000000000
C          C       0.96350   0.50960   0.50000   0.0000000000
C          C       0.92790   0.49180   0.50000   0.0000000000
C          C       0.81980   0.42650   0.50000   0.0000000000
C          C       0.78910   0.42640   0.50000   0.0000000000
C          C       0.78900   0.45720   0.50000   0.0000000000
C          C       0.76060   0.45720   0.50000   0.0000000000
C          C       0.72970   0.42630   0.50000   0.0000000000
C          C       0.72970   0.39550   0.50000   0.0000000000
C          C       0.75820   0.39550   0.50000   0.0000000000
O          O       0.85620   0.45490   0.50000   0.0000000000
H          H       0.96798   0.55886   0.50000   0.0000000000
H          H       0.91418   0.50516   0.50000   0.0000000000
H          H       0.81233   0.48066   0.50000   0.0000000000
H          H       0.76258   0.48130   0.50000   0.0000000000
H          H       0.70730   0.37389   0.50000   0.0000000000
C          C       0.43610   0.98120   0.50000   0.0000000000
C          C       0.45390   0.96350   0.50000   0.0000000000
C          C       0.43610   0.92790   0.50000   0.0000000000
C          C       0.39330   0.81980   0.50000   0.0000000000
C          C       0.36270   0.78910   0.50000   0.0000000000
C          C       0.33180   0.78900   0.50000   0.0000000000
C          C       0.30340   0.76060   0.50000   0.0000000000
C          C       0.30340   0.72970   0.50000   0.0000000000
C          C       0.33420   0.72970   0.50000   0.0000000000
C          C       0.36270   0.75820   0.50000   0.0000000000
O          O       0.40130   0.85620   0.50000   0.0000000000
H          H       0.40912   0.96798   0.50000   0.0000000000
H          H       0.40902   0.91418   0.50000   0.0000000000
H          H       0.33167   0.81233   0.50000   0.0000000000
H          H       0.28129   0.76258   0.50000   0.0000000000
H          H       0.33341   0.70730   0.50000   0.0000000000
C          C       0.54510   0.56390   0.50000   0.0000000000
C          C       0.50960   0.54610   0.50000   0.0000000000
C          C       0.49180   0.56390   0.50000   0.0000000000
C          C       0.42650   0.60670   0.50000   0.0000000000
C          C       0.42640   0.63730   0.50000   0.0000000000
C          C       0.45720   0.66820   0.50000   0.0000000000
C          C       0.45720   0.69660   0.50000   0.0000000000
C          C       0.42630   0.69660   0.50000   0.0000000000
C          C       0.39550   0.66580   0.50000   0.0000000000
C          C       0.39550   0.63730   0.50000   0.0000000000
O          O       0.45490   0.59870   0.50000   0.0000000000
H          H       0.55886   0.59088   0.50000   0.0000000000
H          H       0.50516   0.59098   0.50000   0.0000000000
H          H       0.48066   0.66833   0.50000   0.0000000000
H          H       0.48130   0.71871   0.50000   0.0000000000
H          H       0.37389   0.66659   0.50000   0.0000000000
C          C       0.01880   0.45490   0.50000   0.0000000000
C          C       0.03650   0.49040   0.50000   0.0000000000
C          C       0.07210   0.50820   0.50000   0.0000000000
C          C       0.18020   0.57350   0.50000   0.0000000000
C          C       0.21090   0.57360   0.50000   0.0000000000
C          C       0.21100   0.54280   0.50000   0.0000000000
C          C       0.23940   0.54280   0.50000   0.0000000000
C          C       0.27030   0.57370   0.50000   0.0000000000
C          C       0.27030   0.60450   0.50000   0.0000000000
C          C       0.24180   0.60450   0.50000   0.0000000000
O          O       0.14380   0.54510   0.50000   0.0000000000
H          H       0.03202   0.44114   0.50000   0.0000000000
H          H       0.08582   0.49484   0.50000   0.0000000000
H          H       0.18767   0.51934   0.50000   0.0000000000
H          H       0.23742   0.51870   0.50000   0.0000000000
H          H       0.29270   0.62611   0.50000   0.0000000000
C          C       0.01650   0.50825   0.50000   0.0000000000
C          C       0.08760   0.54380   0.50000   0.0000000000
B          B       0.12130   0.56065   0.50000   0.0000000000
C          C       0.49175   0.50825   0.50000   0.0000000000
C          C       0.45620   0.54380   0.50000   0.0000000000
B          B       0.43935   0.56065   0.50000   0.0000000000
C          C       0.49175   0.98350   0.50000   0.0000000000
C          C       0.45620   0.91240   0.50000   0.0000000000
B          B       0.43935   0.87870   0.50000   0.0000000000
C          C       0.98350   0.49175   0.50000   0.0000000000
C          C       0.91240   0.45620   0.50000   0.0000000000
B          B       0.87870   0.43935   0.50000   0.0000000000
C          C       0.50825   0.49175   0.50000   0.0000000000
C          C       0.54380   0.45620   0.50000   0.0000000000
B          B       0.56065   0.43935   0.50000   0.0000000000
C          C       0.50825   0.01650   0.50000   0.0000000000
C          C       0.54380   0.08760   0.50000   0.0000000000
B          B       0.56065   0.12130   0.50000   0.0000000000
