data_crystal

_cell_length_a    47.10230
_cell_length_b    47.16000
_cell_length_c    7.22530
_cell_angle_alpha 90.00000
_cell_angle_beta  90.00000
_cell_angle_gamma 120.00000

_space_group_name_Hall 'P 1'
_space_group_name_H-M_alt 'P 1'

loop_
_symmetry_equiv_pos_as_xyz
 'x,y,z'

loop_
_atom_site_label
_atom_site_type_symbol
_atom_site_fract_x
_atom_site_fract_y
_atom_site_fract_z
C          C       0.40388   0.84224   0.26344
C          C       0.59612   0.15776   0.76344
C          C       0.68263   0.31818   0.25650
C          C       0.31737   0.68182   0.75650
C          C       0.69878   0.34907   0.25696
C          C       0.30122   0.65093   0.75696
C          C       0.63501   0.26974   0.25596
C          C       0.36499   0.73026   0.75596
C          C       0.60649   0.25389   0.33112
C          C       0.39351   0.74611   0.83112
C          C       0.59082   0.22321   0.32687
C          C       0.40918   0.77679   0.82687
C          C       0.60332   0.20743   0.25278
C          C       0.39668   0.79257   0.75278
C          C       0.63184   0.22294   0.17882
C          C       0.36816   0.77706   0.67882
C          C       0.64728   0.25363   0.17864
C          C       0.35272   0.74637   0.67864
N          N       0.82537   0.41039   0.26202
N          N       0.17463   0.58961   0.76202
H          H       0.38037   0.83349   0.26331
H          H       0.61963   0.16651   0.76331
H          H       0.69420   0.30610   0.25538
H          H       0.30580   0.69390   0.75538
H          H       0.59631   0.26491   0.39821
H          H       0.40369   0.73509   0.89821
H          H       0.56894   0.21160   0.38534
H          H       0.43106   0.78840   0.88534
H          H       0.64204   0.21176   0.11449
H          H       0.35796   0.78824   0.61449
H          H       0.66847   0.26451   0.11142
H          H       0.33153   0.73549   0.61142
C          C       0.42335   0.87439   0.25719
C          C       0.57665   0.12561   0.75719
C          C       0.45408   0.88725   0.26393
C          C       0.54592   0.11275   0.76393
C          C       0.47209   0.91729   0.23045
C          C       0.52791   0.08271   0.73045
C          C       0.45959   0.93471   0.18790
C          C       0.54041   0.06529   0.68790
C          C       0.42907   0.92248   0.19900
C          C       0.57093   0.07752   0.69900
C          C       0.41105   0.89248   0.23317
C          C       0.58895   0.10752   0.73317
C          C       0.47721   0.96268   0.08723
C          C       0.52279   0.03732   0.58723
C          C       0.49299   0.98912   0.19633
C          C       0.50701   0.01088   0.69633
H          H       0.46418   0.87389   0.28546
H          H       0.53582   0.12611   0.78546
H          H       0.49561   0.92639   0.22118
H          H       0.50439   0.07361   0.72118
H          H       0.41911   0.93562   0.16517
H          H       0.58089   0.06438   0.66517
H          H       0.38745   0.88312   0.22996
H          H       0.61255   0.11688   0.72996
C          C       0.15791   0.56260   0.20823
C          C       0.84209   0.43740   0.70823
C          C       0.68331   0.36450   0.25844
C          C       0.31669   0.63550   0.75844
C          C       0.65243   0.34978   0.25981
C          C       0.34757   0.65022   0.75981
C          C       0.73169   0.36516   0.25622
C          C       0.26831   0.63484   0.75622
C          C       0.74740   0.35221   0.33008
C          C       0.25260   0.64779   0.83008
C          C       0.77805   0.36716   0.32774
C          C       0.22195   0.63284   0.82774
C          C       0.79389   0.39579   0.25913
C          C       0.20611   0.60421   0.75913
C          C       0.77857   0.40892   0.18423
C          C       0.22143   0.59108   0.68423
C          C       0.74791   0.39369   0.18121
C          C       0.25209   0.60631   0.68121
N          N       0.59122   0.41527   0.27606
N          N       0.40878   0.58473   0.77606
H          H       0.16566   0.54751   0.17774
H          H       0.83434   0.45249   0.67774
H          H       0.69542   0.38816   0.25869
H          H       0.30458   0.61184   0.75869
H          H       0.73629   0.33084   0.39510
H          H       0.26371   0.66916   0.89510
H          H       0.78956   0.35674   0.38543
H          H       0.21044   0.64326   0.88543
H          H       0.79010   0.43048   0.12170
H          H       0.20990   0.56952   0.62170
H          H       0.73715   0.40417   0.11442
H          H       0.26285   0.59583   0.61442
C          C       0.12593   0.55094   0.21687
C          C       0.87407   0.44906   0.71687
C          C       0.11432   0.56964   0.24407
C          C       0.88568   0.43036   0.74407
C          C       0.08436   0.55789   0.27745
C          C       0.91564   0.44211   0.77745
C          C       0.06571   0.52737   0.28624
C          C       0.93429   0.47263   0.78624
C          C       0.07674   0.50875   0.24162
C          C       0.92326   0.49125   0.74162
C          C       0.10671   0.52049   0.20725
C          C       0.89329   0.47951   0.70725
C          C       0.03747   0.51537   0.38610
C          C       0.96253   0.48463   0.88610
C          C       0.01114   0.50492   0.27638
C          C       0.98886   0.49508   0.77638
H          H       0.12855   0.59324   0.24873
H          H       0.87145   0.40676   0.74873
H          H       0.07617   0.57253   0.31258
H          H       0.92383   0.42747   0.81258
H          H       0.06265   0.48514   0.24916
H          H       0.93735   0.51486   0.74916
H          H       0.11512   0.50570   0.18362
H          H       0.88488   0.49430   0.68362
C          C       0.43828   0.59509   0.22396
C          C       0.56172   0.40491   0.72396
C          C       0.63702   0.31885   0.25922
C          C       0.36298   0.68115   0.75922
C          C       0.65176   0.30269   0.25735
C          C       0.34824   0.69731   0.75735
C          C       0.63635   0.36664   0.26219
C          C       0.36365   0.63336   0.76219
C          C       0.64939   0.39524   0.33717
C          C       0.35061   0.60476   0.83717
C          C       0.63447   0.41100   0.33744
C          C       0.36553   0.58900   0.83744
C          C       0.60579   0.39834   0.27021
C          C       0.39421   0.60166   0.77021
C          C       0.59255   0.36992   0.19443
C          C       0.40745   0.63008   0.69443
C          C       0.60773   0.35443   0.18895
C          C       0.39227   0.64557   0.68895
N          N       0.58601   0.17590   0.25206
N          N       0.41399   0.82410   0.75206
H          H       0.45341   0.61798   0.19478
H          H       0.54659   0.38202   0.69478
H          H       0.61337   0.30727   0.26021
H          H       0.38663   0.69273   0.76021
H          H       0.67082   0.40542   0.40108
H          H       0.32918   0.59458   0.90108
H          H       0.64498   0.43289   0.39602
H          H       0.35502   0.56711   0.89602
H          H       0.57092   0.35997   0.13320
H          H       0.42908   0.64003   0.63320
H          H       0.59714   0.33323   0.12156
H          H       0.40286   0.66677   0.62156
C          C       0.44997   0.57483   0.23677
C          C       0.55003   0.42517   0.73677
C          C       0.43123   0.54449   0.26226
C          C       0.56877   0.45551   0.76226
C          C       0.44286   0.52632   0.30081
C          C       0.55714   0.47368   0.80081
C          C       0.47330   0.53830   0.31651
C          C       0.52670   0.46170   0.81651
C          C       0.49207   0.56798   0.27344
C          C       0.50793   0.43202   0.77344
C          C       0.48044   0.58616   0.23380
C          C       0.51956   0.41384   0.73380
C          C       0.48486   0.52202   0.42030
C          C       0.51514   0.47798   0.92030
C          C       0.49558   0.50609   0.31337
C          C       0.50442   0.49391   0.81337
H          H       0.40762   0.53505   0.26171
H          H       0.59238   0.46495   0.76171
H          H       0.42812   0.50345   0.33445
H          H       0.57188   0.49655   0.83445
H          H       0.51562   0.57756   0.28612
H          H       0.48438   0.42244   0.78612
H          H       0.49528   0.60940   0.21161
H          H       0.50472   0.39060   0.71161
C          C       0.59503   0.15757   0.21320
C          C       0.40497   0.84243   0.71320
C          C       0.31882   0.68233   0.25748
C          C       0.68118   0.31767   0.75748
C          C       0.30286   0.65142   0.25700
C          C       0.69714   0.34858   0.75700
C          C       0.36641   0.73097   0.25868
C          C       0.63359   0.26903   0.75868
C          C       0.39502   0.74675   0.33299
C          C       0.60498   0.25325   0.83299
C          C       0.41065   0.77742   0.33126
C          C       0.58935   0.22258   0.83126
C          C       0.39784   0.79324   0.26289
C          C       0.60216   0.20676   0.76289
C          C       0.36941   0.77787   0.18777
C          C       0.63059   0.22213   0.68777
C          C       0.35405   0.74717   0.18412
C          C       0.64595   0.25283   0.68412
N          N       0.17615   0.58997   0.24735
N          N       0.82385   0.41003   0.74735
H          H       0.61782   0.16524   0.18177
H          H       0.38218   0.83476   0.68177
H          H       0.30711   0.69428   0.25714
H          H       0.69289   0.30572   0.75714
H          H       0.40532   0.73568   0.39796
H          H       0.59468   0.26432   0.89796
H          H       0.43256   0.78897   0.38929
H          H       0.56744   0.21103   0.88929
H          H       0.35935   0.78938   0.12559
H          H       0.64065   0.21062   0.62559
H          H       0.33284   0.73639   0.11714
H          H       0.66716   0.26361   0.61714
C          C       0.57469   0.12559   0.22373
C          C       0.42531   0.87441   0.72373
C          C       0.54445   0.11406   0.25263
C          C       0.45555   0.88594   0.75263
C          C       0.52626   0.08414   0.28818
C          C       0.47374   0.91586   0.78818
C          C       0.53811   0.06548   0.29745
C          C       0.46189   0.93452   0.79745
C          C       0.56766   0.07640   0.25104
C          C       0.43234   0.92360   0.75104
C          C       0.58586   0.10632   0.21449
C          C       0.41414   0.89368   0.71449
C          C       0.52198   0.03737   0.39897
C          C       0.47802   0.96263   0.89897
C          C       0.50604   0.01089   0.29043
C          C       0.49396   0.98911   0.79043
H          H       0.53513   0.12833   0.25703
H          H       0.46487   0.87167   0.75703
H          H       0.50351   0.07602   0.32457
H          H       0.49649   0.92398   0.82457
H          H       0.57715   0.06229   0.25882
H          H       0.42285   0.93771   0.75882
H          H       0.60900   0.11467   0.18955
H          H       0.39100   0.88533   0.68955
C          C       0.84285   0.43866   0.25883
C          C       0.15715   0.56134   0.75883
C          C       0.31852   0.63618   0.25785
C          C       0.68148   0.36382   0.75785
C          C       0.34939   0.65112   0.25842
C          C       0.65061   0.34888   0.75842
C          C       0.26993   0.63505   0.25496
C          C       0.73007   0.36495   0.75496
C          C       0.25393   0.64763   0.32919
C          C       0.74607   0.35237   0.82919
C          C       0.22329   0.63254   0.32386
C          C       0.77671   0.36746   0.82386
C          C       0.20766   0.60425   0.24953
C          C       0.79234   0.39575   0.74953
C          C       0.22333   0.59132   0.17664
C          C       0.77667   0.40868   0.67664
C          C       0.25400   0.60665   0.17770
C          C       0.74600   0.39335   0.67770
N          N       0.41080   0.58585   0.25906
N          N       0.58920   0.41415   0.75906
H          H       0.83414   0.45346   0.25989
H          H       0.16586   0.54654   0.75989
H          H       0.30658   0.61252   0.25775
H          H       0.69342   0.38748   0.75775
H          H       0.26482   0.66885   0.39625
H          H       0.73518   0.33115   0.89625
H          H       0.21156   0.64275   0.38155
H          H       0.78844   0.35725   0.88155
H          H       0.21227   0.56992   0.11228
H          H       0.78773   0.43008   0.61228
H          H       0.26502   0.59640   0.11146
H          H       0.73498   0.40360   0.61146
C          C       0.87496   0.45130   0.25061
C          C       0.12504   0.54870   0.75061
C          C       0.88778   0.43337   0.25562
C          C       0.11222   0.56663   0.75562
C          C       0.91772   0.44535   0.21982
C          C       0.08228   0.55465   0.71982
C          C       0.93506   0.47525   0.17671
C          C       0.06494   0.52475   0.67671
C          C       0.92290   0.49362   0.18958
C          C       0.07710   0.50638   0.68958
C          C       0.89300   0.48168   0.22606
C          C       0.10700   0.51832   0.72606
C          C       0.96285   0.48556   0.07437
C          C       0.03715   0.51444   0.57437
C          C       0.98938   0.49623   0.18227
C          C       0.01062   0.50377   0.68227
H          H       0.87445   0.40992   0.27751
H          H       0.12555   0.59008   0.77751
H          H       0.92678   0.43089   0.20928
H          H       0.07322   0.56911   0.70928
H          H       0.93600   0.51672   0.15542
H          H       0.06400   0.48328   0.65542
H          H       0.88366   0.49596   0.22415
H          H       0.11634   0.50404   0.72415
C          C       0.56296   0.40450   0.27533
C          C       0.43704   0.59550   0.77533
C          C       0.36461   0.68201   0.25847
C          C       0.63539   0.31799   0.75847
C          C       0.34972   0.69801   0.25819
C          C       0.65028   0.30199   0.75819
C          C       0.36570   0.63452   0.25841
C          C       0.63430   0.36548   0.75841
C          C       0.35306   0.60601   0.33395
C          C       0.64694   0.39399   0.83395
C          C       0.36813   0.59042   0.33091
C          C       0.63187   0.40958   0.83091
C          C       0.39647   0.60303   0.25787
C          C       0.60353   0.39697   0.75787
C          C       0.40944   0.63153   0.18333
C          C       0.59056   0.36847   0.68333
C          C       0.39411   0.64688   0.18185
C          C       0.60589   0.35312   0.68185
N          N       0.41467   0.82476   0.26678
N          N       0.58533   0.17524   0.76678
H          H       0.54819   0.38098   0.27637
H          H       0.45181   0.61902   0.77637
H          H       0.38825   0.69368   0.25862
H          H       0.61175   0.30632   0.75862
H          H       0.33181   0.59577   0.40044
H          H       0.66819   0.40423   0.90044
H          H       0.35789   0.56855   0.38973
H          H       0.64211   0.43145   0.88973
H          H       0.43087   0.64176   0.11958
H          H       0.56913   0.35824   0.61958
H          H       0.40439   0.66807   0.11446
H          H       0.59561   0.33193   0.61446
C          C       0.55025   0.42397   0.27123
C          C       0.44975   0.57603   0.77123
C          C       0.56812   0.45473   0.27447
C          C       0.43188   0.54527   0.77447
C          C       0.55590   0.47265   0.24355
C          C       0.44410   0.52735   0.74355
C          C       0.52580   0.46003   0.20721
C          C       0.47420   0.53997   0.70721
C          C       0.50760   0.42950   0.22170
C          C       0.49240   0.57050   0.72170
C          C       0.51977   0.41158   0.25316
C          C       0.48023   0.58842   0.75316
C          C       0.51493   0.47740   0.10862
C          C       0.48507   0.52260   0.60862
C          C       0.50435   0.49309   0.21927
C          C       0.49565   0.50691   0.71927
H          H       0.59166   0.46491   0.29124
H          H       0.40834   0.53509   0.79124
H          H       0.57026   0.49618   0.23144
H          H       0.42974   0.50382   0.73144
H          H       0.48434   0.41943   0.19254
H          H       0.51566   0.58057   0.69254
H          H       0.50554   0.38796   0.25274
H          H       0.49446   0.61204   0.75274
