data_crystal

_cell_length_a    54.36720
_cell_length_b    41.04410
_cell_length_c    7.70520
_cell_angle_alpha 90.00000
_cell_angle_beta  111.40200
_cell_angle_gamma 90.00000

_symmetry_space_group_name_Hall 'P 1'
_symmetry_space_group_name_H-M  'P 1'

loop_
_symmetry_equiv_pos_as_xyz
 'x,y,z'

loop_
_atom_site_label
_atom_site_type_symbol
_atom_site_fract_x
_atom_site_fract_y
_atom_site_fract_z
C          C       0.52272   0.92950   0.24554
C          C       0.47728   0.92950   0.25446
C          C       0.02272   0.42950   0.24554
C          C       0.97728   0.42950   0.25446
C          C       0.47728   0.07050   0.25446
C          C       0.52272   0.07050   0.24554
C          C       0.97728   0.57050   0.25446
C          C       0.02272   0.57050   0.24554
C          C       0.52200   0.96468   0.23346
C          C       0.47800   0.96468   0.26654
C          C       0.02200   0.46468   0.23346
C          C       0.97800   0.46468   0.26654
C          C       0.47800   0.03532   0.26654
C          C       0.52200   0.03532   0.23346
C          C       0.97800   0.53532   0.26654
C          C       0.02200   0.53532   0.23346
C          C       0.54221   0.98275   0.19951
C          C       0.45779   0.98275   0.30049
C          C       0.04221   0.48275   0.19951
C          C       0.95779   0.48275   0.30049
C          C       0.45779   0.01725   0.30049
C          C       0.54221   0.01725   0.19951
C          C       0.95779   0.51725   0.30049
C          C       0.04221   0.51725   0.19951
C          C       0.45308   0.90939   0.24095
C          C       0.54692   0.90939   0.25905
C          C       0.95308   0.40939   0.24095
C          C       0.04692   0.40939   0.25905
C          C       0.54692   0.09061   0.25905
C          C       0.45308   0.09061   0.24095
C          C       0.04692   0.59061   0.25905
C          C       0.95308   0.59061   0.24095
C          C       0.54417   0.87941   0.15990
C          C       0.45583   0.87941   0.34010
C          C       0.04417   0.37941   0.15990
C          C       0.95583   0.37941   0.34010
C          C       0.45583   0.12059   0.34010
C          C       0.54417   0.12059   0.15990
C          C       0.95583   0.62059   0.34010
C          C       0.04417   0.62059   0.15990
C          C       0.56662   0.86030   0.17395
C          C       0.43338   0.86030   0.32605
C          C       0.06662   0.36030   0.17395
C          C       0.93338   0.36030   0.32605
C          C       0.43338   0.13970   0.32605
C          C       0.56662   0.13970   0.17395
C          C       0.93338   0.63970   0.32605
C          C       0.06662   0.63970   0.17395
C          C       0.59250   0.87068   0.28921
C          C       0.40750   0.87068   0.21078
C          C       0.09250   0.37068   0.28921
C          C       0.90750   0.37068   0.21078
C          C       0.40750   0.12932   0.21078
C          C       0.59250   0.12932   0.28921
C          C       0.90750   0.62932   0.21078
C          C       0.09250   0.62932   0.28921
C          C       0.59527   0.90011   0.39104
C          C       0.40473   0.90011   0.10896
C          C       0.09527   0.40011   0.39104
C          C       0.90473   0.40011   0.10896
C          C       0.40473   0.09989   0.10896
C          C       0.59527   0.09989   0.39104
C          C       0.90473   0.59989   0.10896
C          C       0.09527   0.59989   0.39104
C          C       0.57275   0.91891   0.37940
C          C       0.42725   0.91891   0.12060
C          C       0.07275   0.41891   0.37940
C          C       0.92725   0.41891   0.12060
C          C       0.42725   0.08109   0.12060
C          C       0.57275   0.08109   0.37940
C          C       0.92725   0.58109   0.12060
C          C       0.07275   0.58109   0.37940
C          C       0.66756   0.17196   0.31473
C          C       0.33244   0.17196   0.18526
C          C       0.16756   0.67196   0.31473
C          C       0.83244   0.67196   0.18526
C          C       0.33244   0.82804   0.18526
C          C       0.66756   0.82804   0.31473
C          C       0.83244   0.32804   0.18526
C          C       0.16756   0.32804   0.31473
C          C       0.69173   0.18558   0.31700
C          C       0.30827   0.18558   0.18300
C          C       0.19173   0.68558   0.31700
C          C       0.80827   0.68558   0.18300
C          C       0.30827   0.81442   0.18300
C          C       0.69173   0.81442   0.31700
C          C       0.80827   0.31442   0.18300
C          C       0.19173   0.31442   0.31700
C          C       0.69231   0.21792   0.25183
C          C       0.30769   0.21792   0.24817
C          C       0.19231   0.71792   0.25183
C          C       0.80769   0.71792   0.24817
C          C       0.30769   0.78208   0.24817
C          C       0.69231   0.78208   0.25183
C          C       0.80769   0.28208   0.24817
C          C       0.19231   0.28208   0.25183
C          C       0.66866   0.23666   0.18500
C          C       0.33134   0.23666   0.31500
C          C       0.16866   0.73666   0.18500
C          C       0.83134   0.73666   0.31500
C          C       0.33134   0.76334   0.31500
C          C       0.66866   0.76334   0.18500
C          C       0.83134   0.26334   0.31500
C          C       0.16866   0.26334   0.18500
C          C       0.64447   0.22308   0.18247
C          C       0.35553   0.22308   0.31753
C          C       0.14447   0.72308   0.18247
C          C       0.85553   0.72308   0.31753
C          C       0.35553   0.77692   0.31753
C          C       0.64447   0.77692   0.18247
C          C       0.85553   0.27692   0.31753
C          C       0.14447   0.27692   0.18247
C          C       0.64368   0.19061   0.24691
C          C       0.35632   0.19061   0.25309
C          C       0.14368   0.69061   0.24691
C          C       0.85632   0.69061   0.25309
C          C       0.35632   0.80939   0.25309
C          C       0.64368   0.80939   0.24691
C          C       0.85632   0.30939   0.25309
C          C       0.14368   0.30939   0.24691
C          C       0.71711   0.23173   0.25151
C          C       0.28289   0.23173   0.24849
C          C       0.21711   0.73173   0.25151
C          C       0.78289   0.73173   0.24849
C          C       0.28289   0.76827   0.24849
C          C       0.71711   0.76827   0.25151
C          C       0.78289   0.26827   0.24849
C          C       0.21711   0.26827   0.25151
C          C       0.73786   0.24326   0.25062
C          C       0.26214   0.24326   0.24938
C          C       0.23786   0.74326   0.25062
C          C       0.76214   0.74326   0.24938
C          C       0.26214   0.75674   0.24938
C          C       0.73786   0.75674   0.25062
C          C       0.76214   0.25674   0.24938
C          C       0.23786   0.25674   0.25062
C          C       0.61778   0.17653   0.23851
C          C       0.38222   0.17653   0.26149
C          C       0.11778   0.67653   0.23851
C          C       0.88222   0.67653   0.26149
C          C       0.38222   0.82347   0.26149
C          C       0.61778   0.82347   0.23851
C          C       0.88222   0.32347   0.26149
C          C       0.11778   0.32347   0.23851
N          N       0.61646   0.14664   0.29835
N          N       0.38354   0.14664   0.20165
N          N       0.11646   0.64664   0.29835
N          N       0.88354   0.64664   0.20165
N          N       0.38354   0.85336   0.20165
N          N       0.61646   0.85336   0.29835
N          N       0.88354   0.35336   0.20165
N          N       0.11646   0.35336   0.29835
H          H       0.55796   0.97048   0.16761
H          H       0.44204   0.97048   0.33239
H          H       0.05796   0.47048   0.16761
H          H       0.94204   0.47048   0.33239
H          H       0.44204   0.02952   0.33239
H          H       0.55796   0.02952   0.16761
H          H       0.94204   0.52952   0.33239
H          H       0.05796   0.52952   0.16761
H          H       0.52466   0.87091   0.06834
H          H       0.47534   0.87091   0.43166
H          H       0.02466   0.37091   0.06834
H          H       0.97534   0.37091   0.43166
H          H       0.47534   0.12909   0.43166
H          H       0.52466   0.12909   0.06834
H          H       0.97534   0.62909   0.43166
H          H       0.02466   0.62909   0.06834
H          H       0.56351   0.83821   0.08912
H          H       0.43649   0.83821   0.41088
H          H       0.06351   0.33821   0.08912
H          H       0.93649   0.33821   0.41088
H          H       0.43649   0.16179   0.41088
H          H       0.56351   0.16179   0.08912
H          H       0.93649   0.66179   0.41088
H          H       0.06351   0.66179   0.08912
H          H       0.61501   0.90837   0.48126
H          H       0.38499   0.90837   0.01874
H          H       0.11501   0.40837   0.48126
H          H       0.88499   0.40837   0.01874
H          H       0.38499   0.09163   0.01874
H          H       0.61501   0.09163   0.48126
H          H       0.88499   0.59163   0.01874
H          H       0.11501   0.59163   0.48126
H          H       0.57558   0.94093   0.46493
H          H       0.42442   0.94093   0.03507
H          H       0.07558   0.44093   0.46493
H          H       0.92442   0.44093   0.03507
H          H       0.42442   0.05907   0.03507
H          H       0.57558   0.05907   0.46493
H          H       0.92442   0.55907   0.03507
H          H       0.07558   0.55907   0.46493
H          H       0.66757   0.14686   0.36531
H          H       0.33243   0.14686   0.13469
H          H       0.16757   0.64686   0.36531
H          H       0.83243   0.64686   0.13469
H          H       0.33243   0.85314   0.13469
H          H       0.66757   0.85314   0.36531
H          H       0.83243   0.35314   0.13469
H          H       0.16757   0.35314   0.36531
H          H       0.70993   0.17088   0.36910
H          H       0.29007   0.17088   0.13090
H          H       0.20993   0.67088   0.36910
H          H       0.79007   0.67088   0.13090
H          H       0.29007   0.82912   0.13090
H          H       0.70993   0.82912   0.36910
H          H       0.79007   0.32912   0.13090
H          H       0.20993   0.32912   0.36910
H          H       0.66888   0.26167   0.13353
H          H       0.33112   0.26167   0.36647
H          H       0.16888   0.76167   0.13353
H          H       0.83112   0.76167   0.36647
H          H       0.33112   0.73833   0.36647
H          H       0.66888   0.73833   0.13353
H          H       0.83112   0.23833   0.36647
H          H       0.16888   0.23833   0.13353
H          H       0.62633   0.23785   0.12894
H          H       0.37367   0.23785   0.37106
H          H       0.12633   0.73785   0.12894
H          H       0.87367   0.73785   0.37106
H          H       0.37367   0.76215   0.37106
H          H       0.62633   0.76215   0.12894
H          H       0.87367   0.26215   0.37106
H          H       0.12633   0.26215   0.12894
H          H       0.59997   0.19171   0.18096
H          H       0.40003   0.19171   0.31905
H          H       0.09997   0.69171   0.18096
H          H       0.90003   0.69171   0.31905
H          H       0.40003   0.80829   0.31905
H          H       0.59997   0.80829   0.18096
H          H       0.90003   0.30829   0.31905
H          H       0.09997   0.30829   0.18096
C          C       0.50000   0.98230   0.25000
C          C       0.00000   0.48230   0.25000
C          C       0.50000   0.01770   0.25000
C          C       0.00000   0.51770   0.25000
C          C       0.50000   0.91268   0.25000
C          C       0.00000   0.41268   0.25000
C          C       0.50000   0.08732   0.25000
C          C       0.00000   0.58732   0.25000
H          H       0.50000   0.88582   0.25000
H          H       0.00000   0.38582   0.25000
H          H       0.50000   0.11418   0.25000
H          H       0.00000   0.61418   0.25000
C          C       0.52272   0.92950   0.74554
C          C       0.47728   0.92950   0.75446
C          C       0.02272   0.42950   0.74554
C          C       0.97728   0.42950   0.75446
C          C       0.47728   0.07050   0.75446
C          C       0.52272   0.07050   0.74554
C          C       0.97728   0.57050   0.75446
C          C       0.02272   0.57050   0.74554
C          C       0.52200   0.96468   0.73346
C          C       0.47800   0.96468   0.76653
C          C       0.02200   0.46468   0.73346
C          C       0.97800   0.46468   0.76653
C          C       0.47800   0.03532   0.76653
C          C       0.52200   0.03532   0.73346
C          C       0.97800   0.53532   0.76653
C          C       0.02200   0.53532   0.73346
C          C       0.54221   0.98275   0.69951
C          C       0.45779   0.98275   0.80049
C          C       0.04221   0.48275   0.69951
C          C       0.95779   0.48275   0.80049
C          C       0.45779   0.01725   0.80049
C          C       0.54221   0.01725   0.69951
C          C       0.95779   0.51725   0.80049
C          C       0.04221   0.51725   0.69951
C          C       0.45308   0.90939   0.74095
C          C       0.54692   0.90939   0.75904
C          C       0.95308   0.40939   0.74095
C          C       0.04692   0.40939   0.75904
C          C       0.54692   0.09061   0.75904
C          C       0.45308   0.09061   0.74095
C          C       0.04692   0.59061   0.75904
C          C       0.95308   0.59061   0.74095
C          C       0.54417   0.87941   0.65990
C          C       0.45583   0.87941   0.84009
C          C       0.04417   0.37941   0.65990
C          C       0.95583   0.37941   0.84009
C          C       0.45583   0.12059   0.84009
C          C       0.54417   0.12059   0.65990
C          C       0.95583   0.62059   0.84009
C          C       0.04417   0.62059   0.65990
C          C       0.56662   0.86030   0.67395
C          C       0.43338   0.86030   0.82605
C          C       0.06662   0.36030   0.67395
C          C       0.93338   0.36030   0.82605
C          C       0.43338   0.13970   0.82605
C          C       0.56662   0.13970   0.67395
C          C       0.93338   0.63970   0.82605
C          C       0.06662   0.63970   0.67395
C          C       0.59250   0.87068   0.78921
C          C       0.40750   0.87068   0.71078
C          C       0.09250   0.37068   0.78921
C          C       0.90750   0.37068   0.71078
C          C       0.40750   0.12932   0.71078
C          C       0.59250   0.12932   0.78921
C          C       0.90750   0.62932   0.71078
C          C       0.09250   0.62932   0.78921
C          C       0.59527   0.90011   0.89104
C          C       0.40473   0.90011   0.60896
C          C       0.09527   0.40011   0.89104
C          C       0.90473   0.40011   0.60896
C          C       0.40473   0.09989   0.60896
C          C       0.59527   0.09989   0.89104
C          C       0.90473   0.59989   0.60896
C          C       0.09527   0.59989   0.89104
C          C       0.57275   0.91891   0.87940
C          C       0.42725   0.91891   0.62060
C          C       0.07275   0.41891   0.87940
C          C       0.92725   0.41891   0.62060
C          C       0.42725   0.08109   0.62060
C          C       0.57275   0.08109   0.87940
C          C       0.92725   0.58109   0.62060
C          C       0.07275   0.58109   0.87940
C          C       0.66756   0.17196   0.81473
C          C       0.33244   0.17196   0.68527
C          C       0.16756   0.67196   0.81473
C          C       0.83244   0.67196   0.68527
C          C       0.33244   0.82804   0.68527
C          C       0.66756   0.82804   0.81473
C          C       0.83244   0.32804   0.68527
C          C       0.16756   0.32804   0.81473
C          C       0.69173   0.18558   0.81700
C          C       0.30827   0.18558   0.68300
C          C       0.19173   0.68558   0.81700
C          C       0.80827   0.68558   0.68300
C          C       0.30827   0.81442   0.68300
C          C       0.69173   0.81442   0.81700
C          C       0.80827   0.31442   0.68300
C          C       0.19173   0.31442   0.81700
C          C       0.69231   0.21792   0.75182
C          C       0.30769   0.21792   0.74817
C          C       0.19231   0.71792   0.75182
C          C       0.80769   0.71792   0.74817
C          C       0.30769   0.78208   0.74817
C          C       0.69231   0.78208   0.75182
C          C       0.80769   0.28208   0.74817
C          C       0.19231   0.28208   0.75182
C          C       0.66866   0.23666   0.68500
C          C       0.33134   0.23666   0.81500
C          C       0.16866   0.73666   0.68500
C          C       0.83134   0.73666   0.81500
C          C       0.33134   0.76334   0.81500
C          C       0.66866   0.76334   0.68500
C          C       0.83134   0.26334   0.81500
C          C       0.16866   0.26334   0.68500
C          C       0.64447   0.22308   0.68247
C          C       0.35553   0.22308   0.81752
C          C       0.14447   0.72308   0.68247
C          C       0.85553   0.72308   0.81752
C          C       0.35553   0.77692   0.81752
C          C       0.64447   0.77692   0.68247
C          C       0.85553   0.27692   0.81752
C          C       0.14447   0.27692   0.68247
C          C       0.64368   0.19061   0.74691
C          C       0.35632   0.19061   0.75309
C          C       0.14368   0.69061   0.74691
C          C       0.85632   0.69061   0.75309
C          C       0.35632   0.80939   0.75309
C          C       0.64368   0.80939   0.74691
C          C       0.85632   0.30939   0.75309
C          C       0.14368   0.30939   0.74691
C          C       0.71711   0.23173   0.75151
C          C       0.28289   0.23173   0.74849
C          C       0.21711   0.73173   0.75151
C          C       0.78289   0.73173   0.74849
C          C       0.28289   0.76827   0.74849
C          C       0.71711   0.76827   0.75151
C          C       0.78289   0.26827   0.74849
C          C       0.21711   0.26827   0.75151
C          C       0.73786   0.24326   0.75062
C          C       0.26214   0.24326   0.74937
C          C       0.23786   0.74326   0.75062
C          C       0.76214   0.74326   0.74937
C          C       0.26214   0.75674   0.74937
C          C       0.73786   0.75674   0.75062
C          C       0.76214   0.25674   0.74937
C          C       0.23786   0.25674   0.75062
C          C       0.61778   0.17653   0.73851
C          C       0.38222   0.17653   0.76148
C          C       0.11778   0.67653   0.73851
C          C       0.88222   0.67653   0.76148
C          C       0.38222   0.82347   0.76148
C          C       0.61778   0.82347   0.73851
C          C       0.88222   0.32347   0.76148
C          C       0.11778   0.32347   0.73851
N          N       0.61646   0.14664   0.79835
N          N       0.38354   0.14664   0.70165
N          N       0.11646   0.64664   0.79835
N          N       0.88354   0.64664   0.70165
N          N       0.38354   0.85336   0.70165
N          N       0.61646   0.85336   0.79835
N          N       0.88354   0.35336   0.70165
N          N       0.11646   0.35336   0.79835
H          H       0.55796   0.97048   0.66761
H          H       0.44204   0.97048   0.83238
H          H       0.05796   0.47048   0.66761
H          H       0.94204   0.47048   0.83238
H          H       0.44204   0.02952   0.83238
H          H       0.55796   0.02952   0.66761
H          H       0.94204   0.52952   0.83238
H          H       0.05796   0.52952   0.66761
H          H       0.52466   0.87091   0.56833
H          H       0.47534   0.87091   0.93166
H          H       0.02466   0.37091   0.56833
H          H       0.97534   0.37091   0.93166
H          H       0.47534   0.12909   0.93166
H          H       0.52466   0.12909   0.56833
H          H       0.97534   0.62909   0.93166
H          H       0.02466   0.62909   0.56833
H          H       0.56351   0.83821   0.58912
H          H       0.43649   0.83821   0.91088
H          H       0.06351   0.33821   0.58912
H          H       0.93649   0.33821   0.91088
H          H       0.43649   0.16179   0.91088
H          H       0.56351   0.16179   0.58912
H          H       0.93649   0.66179   0.91088
H          H       0.06351   0.66179   0.58912
H          H       0.61501   0.90837   0.98126
H          H       0.38499   0.90837   0.51874
H          H       0.11501   0.40837   0.98126
H          H       0.88499   0.40837   0.51874
H          H       0.38499   0.09163   0.51874
H          H       0.61501   0.09163   0.98126
H          H       0.88499   0.59163   0.51874
H          H       0.11501   0.59163   0.98126
H          H       0.57558   0.94093   0.96493
H          H       0.42442   0.94093   0.53507
H          H       0.07558   0.44093   0.96493
H          H       0.92442   0.44093   0.53507
H          H       0.42442   0.05907   0.53507
H          H       0.57558   0.05907   0.96493
H          H       0.92442   0.55907   0.53507
H          H       0.07558   0.55907   0.96493
H          H       0.66757   0.14686   0.86531
H          H       0.33243   0.14686   0.63468
H          H       0.16757   0.64686   0.86531
H          H       0.83243   0.64686   0.63468
H          H       0.33243   0.85314   0.63468
H          H       0.66757   0.85314   0.86531
H          H       0.83243   0.35314   0.63468
H          H       0.16757   0.35314   0.86531
H          H       0.70993   0.17088   0.86910
H          H       0.29007   0.17088   0.63090
H          H       0.20993   0.67088   0.86910
H          H       0.79007   0.67088   0.63090
H          H       0.29007   0.82912   0.63090
H          H       0.70993   0.82912   0.86910
H          H       0.79007   0.32912   0.63090
H          H       0.20993   0.32912   0.86910
H          H       0.66888   0.26167   0.63353
H          H       0.33112   0.26167   0.86647
H          H       0.16888   0.76167   0.63353
H          H       0.83112   0.76167   0.86647
H          H       0.33112   0.73833   0.86647
H          H       0.66888   0.73833   0.63353
H          H       0.83112   0.23833   0.86647
H          H       0.16888   0.23833   0.63353
H          H       0.62633   0.23785   0.62894
H          H       0.37367   0.23785   0.87106
H          H       0.12633   0.73785   0.62894
H          H       0.87367   0.73785   0.87106
H          H       0.37367   0.76215   0.87106
H          H       0.62633   0.76215   0.62894
H          H       0.87367   0.26215   0.87106
H          H       0.12633   0.26215   0.62894
H          H       0.59997   0.19171   0.68095
H          H       0.40003   0.19171   0.81904
H          H       0.09997   0.69171   0.68095
H          H       0.90003   0.69171   0.81904
H          H       0.40003   0.80829   0.81904
H          H       0.59997   0.80829   0.68095
H          H       0.90003   0.30829   0.81904
H          H       0.09997   0.30829   0.68095
C          C       0.50000   0.98230   0.75000
C          C       0.00000   0.48230   0.75000
C          C       0.50000   0.01770   0.75000
C          C       0.00000   0.51770   0.75000
C          C       0.50000   0.91268   0.75000
C          C       0.00000   0.41268   0.75000
C          C       0.50000   0.08732   0.75000
C          C       0.00000   0.58732   0.75000
H          H       0.50000   0.88582   0.75000
H          H       0.00000   0.38582   0.75000
H          H       0.50000   0.11418   0.75000
H          H       0.00000   0.61418   0.75000
