data_crystal

_cell_length_a    39.98760
_cell_length_b    39.98760
_cell_length_c    7.23020
_cell_angle_alpha 90.00000
_cell_angle_beta  90.00000
_cell_angle_gamma 90.00000

_symmetry_space_group_name_Hall 'P 1'
_symmetry_space_group_name_H-M  'P 1'

loop_
_symmetry_equiv_pos_as_xyz
 'x,y,z'

loop_
_atom_site_label
_atom_site_type_symbol
_atom_site_fract_x
_atom_site_fract_y
_atom_site_fract_z
C          C       0.49992   0.97973   0.25176
C          C       0.50008   0.02027   0.25176
C          C       0.49967   0.94635   0.25216
C          C       0.50033   0.05365   0.25216
C          C       0.49864   0.90498   0.25403
C          C       0.50136   0.09502   0.25403
C          C       0.46988   0.88531   0.30568
C          C       0.53012   0.11469   0.30568
C          C       0.46821   0.84833   0.30929
C          C       0.53179   0.15167   0.30929
C          C       0.49481   0.82513   0.26155
C          C       0.50519   0.17487   0.26155
C          C       0.52393   0.84463   0.20893
C          C       0.47607   0.15537   0.20893
C          C       0.52566   0.88205   0.20563
C          C       0.47434   0.11795   0.20563
C          C       0.48877   0.78345   0.27600
C          C       0.51123   0.21655   0.27600
C          C       0.56436   0.41039   0.18903
C          C       0.43564   0.58961   0.18903
C          C       0.58827   0.43388   0.18879
C          C       0.41173   0.56612   0.18879
C          C       0.57374   0.46658   0.23555
C          C       0.42626   0.53342   0.23555
N          N       0.53933   0.45990   0.25977
N          N       0.46067   0.54010   0.25977
C          C       0.53203   0.42561   0.23568
C          C       0.46797   0.57439   0.23568
C          C       0.41141   0.43770   0.31395
C          C       0.58859   0.56230   0.31395
C          C       0.43597   0.41269   0.31417
C          C       0.56403   0.58731   0.31417
C          C       0.46674   0.42643   0.26615
C          C       0.53326   0.57357   0.26615
N          N       0.45999   0.46075   0.23971
N          N       0.54001   0.53925   0.23971
C          C       0.42578   0.46812   0.26605
C          C       0.57422   0.53188   0.26605
C          C       0.49920   0.40648   0.25038
C          C       0.50080   0.59352   0.25038
C          C       0.40648   0.50091   0.25076
C          C       0.59352   0.49909   0.25076
C          C       0.50137   0.63618   0.24822
C          C       0.49863   0.36382   0.24822
C          C       0.63618   0.49854   0.25315
C          C       0.36382   0.50146   0.25315
C          C       0.52832   0.65669   0.17628
C          C       0.47168   0.34331   0.17628
C          C       0.52965   0.69371   0.17488
C          C       0.47035   0.30629   0.17488
C          C       0.50395   0.71615   0.24146
C          C       0.49605   0.28385   0.24146
C          C       0.47644   0.69634   0.31229
C          C       0.52356   0.30366   0.31229
C          C       0.47546   0.65893   0.31648
C          C       0.52454   0.34107   0.31648
C          C       0.65667   0.47158   0.32518
C          C       0.34333   0.52842   0.32518
C          C       0.69369   0.47024   0.32661
C          C       0.30631   0.52976   0.32661
C          C       0.71615   0.49593   0.25998
C          C       0.28385   0.50407   0.25998
C          C       0.69634   0.52345   0.18909
C          C       0.30366   0.47655   0.18909
C          C       0.65894   0.52444   0.18486
C          C       0.34106   0.47556   0.18486
N          N       0.50779   0.75551   0.23305
N          N       0.49221   0.24449   0.23305
C          C       0.02027   0.49993   0.24973
C          C       0.97973   0.50007   0.24973
C          C       0.05366   0.49970   0.24934
C          C       0.94634   0.50030   0.24934
C          C       0.09502   0.49868   0.24746
C          C       0.90498   0.50132   0.24746
C          C       0.11471   0.46994   0.19579
C          C       0.88529   0.53006   0.19579
C          C       0.15169   0.46828   0.19217
C          C       0.84831   0.53172   0.19217
C          C       0.17488   0.49489   0.23993
C          C       0.82512   0.50511   0.23993
C          C       0.15536   0.52401   0.29258
C          C       0.84464   0.47599   0.29258
C          C       0.11794   0.52572   0.29589
C          C       0.88206   0.47428   0.29589
C          C       0.21657   0.48887   0.22546
C          C       0.78343   0.51113   0.22546
N          N       0.24450   0.50790   0.26844
N          N       0.75550   0.49210   0.26844
H          H       0.44759   0.89879   0.34614
H          H       0.55241   0.10121   0.34614
H          H       0.44467   0.83752   0.35265
H          H       0.55533   0.16248   0.35265
H          H       0.54615   0.83098   0.16912
H          H       0.45385   0.16902   0.16912
H          H       0.54911   0.89314   0.16311
H          H       0.45089   0.10686   0.16311
H          H       0.46420   0.77778   0.33026
H          H       0.53580   0.22222   0.33026
H          H       0.56860   0.38476   0.14863
H          H       0.43140   0.61524   0.14863
H          H       0.61378   0.42905   0.14819
H          H       0.38622   0.57095   0.14819
H          H       0.38572   0.43361   0.35369
H          H       0.61428   0.56639   0.35369
H          H       0.43129   0.38714   0.35412
H          H       0.56871   0.61286   0.35412
H          H       0.47780   0.47824   0.19854
H          H       0.52220   0.52176   0.19854
H          H       0.54927   0.64404   0.11356
H          H       0.45073   0.35596   0.11356
H          H       0.55176   0.70508   0.11586
H          H       0.44824   0.29492   0.11586
H          H       0.45524   0.70964   0.36916
H          H       0.54476   0.29036   0.36916
H          H       0.45374   0.64784   0.38054
H          H       0.54626   0.35216   0.38054
H          H       0.64400   0.45068   0.38819
H          H       0.35600   0.54932   0.38819
H          H       0.70506   0.44814   0.38574
H          H       0.29494   0.55186   0.38574
H          H       0.70965   0.54464   0.13225
H          H       0.29035   0.45536   0.13225
H          H       0.64785   0.54618   0.12096
H          H       0.35215   0.45382   0.12096
H          H       0.10124   0.44764   0.15530
H          H       0.89876   0.55236   0.15530
H          H       0.16251   0.44475   0.14878
H          H       0.83749   0.55525   0.14878
H          H       0.16900   0.54623   0.33241
H          H       0.83100   0.45377   0.33241
H          H       0.10684   0.54916   0.33842
H          H       0.89316   0.45084   0.33842
H          H       0.22224   0.46431   0.17114
H          H       0.77776   0.53569   0.17114
C          C       0.49992   0.97973   0.75176
C          C       0.50008   0.02027   0.75176
C          C       0.49967   0.94635   0.75216
C          C       0.50033   0.05365   0.75216
C          C       0.49864   0.90498   0.75403
C          C       0.50136   0.09502   0.75403
C          C       0.46988   0.88531   0.80568
C          C       0.53012   0.11469   0.80568
C          C       0.46821   0.84833   0.80929
C          C       0.53179   0.15167   0.80929
C          C       0.49481   0.82513   0.76155
C          C       0.50519   0.17487   0.76155
C          C       0.52393   0.84463   0.70893
C          C       0.47607   0.15537   0.70893
C          C       0.52566   0.88205   0.70563
C          C       0.47434   0.11795   0.70563
C          C       0.48877   0.78345   0.77600
C          C       0.51123   0.21655   0.77600
C          C       0.56436   0.41039   0.68903
C          C       0.43564   0.58961   0.68903
C          C       0.58827   0.43388   0.68879
C          C       0.41173   0.56612   0.68879
C          C       0.57374   0.46658   0.73556
C          C       0.42626   0.53342   0.73556
N          N       0.53933   0.45990   0.75977
N          N       0.46067   0.54010   0.75977
C          C       0.53203   0.42561   0.73568
C          C       0.46797   0.57439   0.73568
C          C       0.41141   0.43770   0.81395
C          C       0.58859   0.56230   0.81395
C          C       0.43597   0.41269   0.81417
C          C       0.56403   0.58731   0.81417
C          C       0.46674   0.42643   0.76615
C          C       0.53326   0.57357   0.76615
N          N       0.45999   0.46075   0.73971
N          N       0.54001   0.53925   0.73971
C          C       0.42578   0.46812   0.76605
C          C       0.57422   0.53188   0.76605
C          C       0.49920   0.40648   0.75038
C          C       0.50080   0.59352   0.75038
C          C       0.40648   0.50091   0.75076
C          C       0.59352   0.49909   0.75076
C          C       0.50137   0.63618   0.74822
C          C       0.49863   0.36382   0.74822
C          C       0.63618   0.49854   0.75315
C          C       0.36382   0.50146   0.75315
C          C       0.52832   0.65669   0.67628
C          C       0.47168   0.34331   0.67628
C          C       0.52965   0.69371   0.67488
C          C       0.47035   0.30629   0.67488
C          C       0.50395   0.71615   0.74146
C          C       0.49605   0.28385   0.74146
C          C       0.47644   0.69634   0.81229
C          C       0.52356   0.30366   0.81229
C          C       0.47546   0.65893   0.81648
C          C       0.52454   0.34107   0.81648
C          C       0.65667   0.47158   0.82518
C          C       0.34333   0.52842   0.82518
C          C       0.69369   0.47024   0.82661
C          C       0.30631   0.52976   0.82661
C          C       0.71615   0.49593   0.75998
C          C       0.28385   0.50407   0.75998
C          C       0.69634   0.52345   0.68909
C          C       0.30366   0.47655   0.68909
C          C       0.65894   0.52444   0.68486
C          C       0.34106   0.47556   0.68486
N          N       0.50779   0.75551   0.73305
N          N       0.49221   0.24449   0.73305
C          C       0.02027   0.49993   0.74972
C          C       0.97973   0.50007   0.74972
C          C       0.05366   0.49970   0.74934
C          C       0.94634   0.50030   0.74934
C          C       0.09502   0.49868   0.74746
C          C       0.90498   0.50132   0.74746
C          C       0.11471   0.46994   0.69578
C          C       0.88529   0.53006   0.69578
C          C       0.15169   0.46828   0.69217
C          C       0.84831   0.53172   0.69217
C          C       0.17488   0.49489   0.73993
C          C       0.82512   0.50511   0.73993
C          C       0.15536   0.52401   0.79258
C          C       0.84464   0.47599   0.79258
C          C       0.11794   0.52572   0.79589
C          C       0.88206   0.47428   0.79589
C          C       0.21657   0.48887   0.72546
C          C       0.78343   0.51113   0.72546
N          N       0.24450   0.50790   0.76844
N          N       0.75550   0.49210   0.76844
H          H       0.44759   0.89879   0.84614
H          H       0.55241   0.10121   0.84614
H          H       0.44467   0.83752   0.85266
H          H       0.55533   0.16248   0.85266
H          H       0.54615   0.83098   0.66912
H          H       0.45385   0.16902   0.66912
H          H       0.54911   0.89314   0.66311
H          H       0.45089   0.10686   0.66311
H          H       0.46420   0.77778   0.83027
H          H       0.53580   0.22222   0.83027
H          H       0.56860   0.38476   0.64864
H          H       0.43140   0.61524   0.64864
H          H       0.61378   0.42905   0.64819
H          H       0.38622   0.57095   0.64819
H          H       0.38572   0.43361   0.85369
H          H       0.61428   0.56639   0.85369
H          H       0.43129   0.38714   0.85412
H          H       0.56871   0.61286   0.85412
H          H       0.47780   0.47824   0.69854
H          H       0.52220   0.52176   0.69854
H          H       0.54927   0.64404   0.61357
H          H       0.45073   0.35596   0.61357
H          H       0.55176   0.70508   0.61586
H          H       0.44824   0.29492   0.61586
H          H       0.45524   0.70964   0.86916
H          H       0.54476   0.29036   0.86916
H          H       0.45374   0.64784   0.88054
H          H       0.54626   0.35216   0.88054
H          H       0.64400   0.45068   0.88819
H          H       0.35600   0.54932   0.88819
H          H       0.70506   0.44814   0.88574
H          H       0.29494   0.55186   0.88574
H          H       0.70965   0.54464   0.63225
H          H       0.29035   0.45536   0.63225
H          H       0.64785   0.54618   0.62096
H          H       0.35215   0.45382   0.62096
H          H       0.10124   0.44764   0.65531
H          H       0.89876   0.55236   0.65531
H          H       0.16251   0.44475   0.64878
H          H       0.83749   0.55525   0.64878
H          H       0.16900   0.54623   0.83241
H          H       0.83100   0.45377   0.83241
H          H       0.10684   0.54916   0.83842
H          H       0.89316   0.45084   0.83842
H          H       0.22224   0.46431   0.67114
H          H       0.77776   0.53569   0.67114
