data_crystal

_cell_length_a    43.20690
_cell_length_b    38.52980
_cell_length_c    7.20770
_cell_angle_alpha 90.00000
_cell_angle_beta  99.39800
_cell_angle_gamma 90.00000

_space_group_name_Hall 'P 1'
_space_group_name_H-M_alt  'P 1'

loop_
_symmetry_equiv_pos_as_xyz
 'x,y,z'

loop_
_atom_site_label
_atom_site_type_symbol
_atom_site_fract_x
_atom_site_fract_y
_atom_site_fract_z
C          C       0.52398   0.93578   0.08341
C          C       0.47602   0.93578   0.91659
C          C       0.02398   0.43578   0.08341
C          C       0.97602   0.43578   0.91659
C          C       0.47602   0.06422   0.91659
C          C       0.52398   0.06422   0.08341
C          C       0.97602   0.56422   0.91659
C          C       0.02398   0.56422   0.08341
C          C       0.52330   0.96782   0.09286
C          C       0.47670   0.96782   0.90714
C          C       0.02330   0.46782   0.09286
C          C       0.97670   0.46782   0.90714
C          C       0.47670   0.03218   0.90714
C          C       0.52330   0.03218   0.09286
C          C       0.97670   0.53218   0.90714
C          C       0.02330   0.53218   0.09286
C          C       0.54484   0.98432   0.19701
C          C       0.45516   0.98432   0.80299
C          C       0.04484   0.48432   0.19701
C          C       0.95516   0.48432   0.80299
C          C       0.45516   0.01568   0.80299
C          C       0.54484   0.01568   0.19701
C          C       0.95516   0.51568   0.80299
C          C       0.04484   0.51568   0.19701
C          C       0.45058   0.91728   0.84908
C          C       0.54942   0.91728   0.15092
C          C       0.95058   0.41728   0.84908
C          C       0.04942   0.41728   0.15092
C          C       0.54942   0.08272   0.15092
C          C       0.45058   0.08272   0.84908
C          C       0.04942   0.58272   0.15092
C          C       0.95058   0.58272   0.84908
C          C       0.54715   0.88903   0.23526
C          C       0.45285   0.88903   0.76474
C          C       0.04715   0.38903   0.23526
C          C       0.95285   0.38903   0.76474
C          C       0.45285   0.11097   0.76474
C          C       0.54715   0.11097   0.23526
C          C       0.95285   0.61097   0.76474
C          C       0.04715   0.61097   0.23526
C          C       0.57036   0.87040   0.28260
C          C       0.42964   0.87040   0.71740
C          C       0.07036   0.37040   0.28260
C          C       0.92964   0.37040   0.71740
C          C       0.42964   0.12960   0.71740
C          C       0.57036   0.12960   0.28260
C          C       0.92964   0.62960   0.71740
C          C       0.07036   0.62960   0.28260
C          C       0.59655   0.87966   0.24747
C          C       0.40345   0.87966   0.75253
C          C       0.09655   0.37966   0.24747
C          C       0.90345   0.37966   0.75253
C          C       0.40345   0.12034   0.75253
C          C       0.59655   0.12034   0.24747
C          C       0.90345   0.62034   0.75253
C          C       0.09655   0.62034   0.24747
C          C       0.59911   0.90803   0.16891
C          C       0.40089   0.90803   0.83109
C          C       0.09911   0.40803   0.16891
C          C       0.90089   0.40803   0.83109
C          C       0.40089   0.09197   0.83109
C          C       0.59911   0.09197   0.16891
C          C       0.90089   0.59197   0.83109
C          C       0.09911   0.59197   0.16891
C          C       0.57579   0.92626   0.11669
C          C       0.42421   0.92626   0.88331
C          C       0.07579   0.42626   0.11669
C          C       0.92421   0.42626   0.88331
C          C       0.42421   0.07374   0.88331
C          C       0.57579   0.07374   0.11669
C          C       0.92421   0.57374   0.88331
C          C       0.07579   0.57374   0.11669
C          C       0.67339   0.16984   0.38724
C          C       0.32661   0.16984   0.61276
C          C       0.17339   0.66984   0.38724
C          C       0.82661   0.66984   0.61276
C          C       0.32661   0.83016   0.61276
C          C       0.67339   0.83016   0.38724
C          C       0.82661   0.33016   0.61276
C          C       0.17339   0.33016   0.38724
C          C       0.69770   0.18561   0.45616
C          C       0.30230   0.18561   0.54384
C          C       0.19770   0.68561   0.45616
C          C       0.80230   0.68561   0.54384
C          C       0.30230   0.81439   0.54384
C          C       0.69770   0.81439   0.45616
C          C       0.80230   0.31439   0.54384
C          C       0.19770   0.31439   0.45616
C          C       0.69643   0.21628   0.50228
C          C       0.30357   0.21628   0.49772
C          C       0.19643   0.71628   0.50228
C          C       0.80357   0.71628   0.49772
C          C       0.30357   0.78372   0.49772
C          C       0.69643   0.78372   0.50228
C          C       0.80357   0.28372   0.49772
C          C       0.19643   0.28372   0.50228
C          C       0.67100   0.23161   0.46357
C          C       0.32900   0.23161   0.53643
C          C       0.17100   0.73161   0.46357
C          C       0.82900   0.73161   0.53643
C          C       0.32900   0.76839   0.53643
C          C       0.67100   0.76839   0.46357
C          C       0.82900   0.26839   0.53643
C          C       0.17100   0.26839   0.46357
C          C       0.64673   0.21590   0.39414
C          C       0.35327   0.21590   0.60586
C          C       0.14673   0.71590   0.39414
C          C       0.85327   0.71590   0.60586
C          C       0.35327   0.78410   0.60586
C          C       0.64673   0.78410   0.39414
C          C       0.85327   0.28410   0.60586
C          C       0.14673   0.28410   0.39414
C          C       0.64754   0.18467   0.36218
C          C       0.35246   0.18467   0.63782
C          C       0.14754   0.68467   0.36218
C          C       0.85246   0.68467   0.63782
C          C       0.35246   0.81533   0.63782
C          C       0.64754   0.81533   0.36218
C          C       0.85246   0.31533   0.63782
C          C       0.14754   0.31533   0.36218
C          C       0.71990   0.23044   0.62542
C          C       0.28010   0.23044   0.37458
C          C       0.21990   0.73044   0.62542
C          C       0.78010   0.73044   0.37458
C          C       0.28010   0.76956   0.37458
C          C       0.71990   0.76956   0.62542
C          C       0.78010   0.26956   0.37458
C          C       0.21990   0.26956   0.62542
C          C       0.74131   0.24437   0.53909
C          C       0.25869   0.24437   0.46091
C          C       0.24131   0.74437   0.53909
C          C       0.75869   0.74437   0.46091
C          C       0.25869   0.75563   0.46091
C          C       0.74131   0.75563   0.53909
C          C       0.75869   0.25563   0.46091
C          C       0.24131   0.25563   0.53909
C          C       0.62120   0.16798   0.31089
C          C       0.37880   0.16798   0.68911
C          C       0.12120   0.66798   0.31089
C          C       0.87880   0.66798   0.68911
C          C       0.37880   0.83202   0.68911
C          C       0.62120   0.83202   0.31089
C          C       0.87880   0.33202   0.68911
C          C       0.12120   0.33202   0.31089
N          N       0.62099   0.13876   0.29204
N          N       0.37901   0.13876   0.70796
N          N       0.12099   0.63876   0.29204
N          N       0.87901   0.63876   0.70796
N          N       0.37901   0.86124   0.70796
N          N       0.62099   0.86124   0.29204
N          N       0.87901   0.36124   0.70796
N          N       0.12099   0.36124   0.29204
H          H       0.56172   0.97325   0.28402
H          H       0.43828   0.97325   0.71598
H          H       0.06172   0.47325   0.28402
H          H       0.93828   0.47325   0.71598
H          H       0.43828   0.02675   0.71598
H          H       0.56172   0.02675   0.28402
H          H       0.93828   0.52675   0.71598
H          H       0.06172   0.52675   0.28402
H          H       0.52740   0.88122   0.26532
H          H       0.47260   0.88122   0.73468
H          H       0.02740   0.38122   0.26532
H          H       0.97260   0.38122   0.73468
H          H       0.47260   0.11878   0.73468
H          H       0.52740   0.11878   0.26532
H          H       0.97260   0.61878   0.73468
H          H       0.02740   0.61878   0.26532
H          H       0.56773   0.84915   0.34976
H          H       0.43227   0.84915   0.65024
H          H       0.06773   0.34915   0.34976
H          H       0.93227   0.34915   0.65024
H          H       0.43227   0.15085   0.65024
H          H       0.56773   0.15085   0.34976
H          H       0.93227   0.65085   0.65024
H          H       0.06773   0.65085   0.34976
H          H       0.61913   0.91550   0.14097
H          H       0.38087   0.91550   0.85903
H          H       0.11913   0.41550   0.14097
H          H       0.88087   0.41550   0.85903
H          H       0.38087   0.08450   0.85903
H          H       0.61913   0.08450   0.14097
H          H       0.88087   0.58450   0.85903
H          H       0.11913   0.58450   0.14097
H          H       0.57843   0.94710   0.04569
H          H       0.42157   0.94710   0.95431
H          H       0.07843   0.44710   0.04569
H          H       0.92157   0.44710   0.95431
H          H       0.42157   0.05290   0.95431
H          H       0.57843   0.05290   0.04569
H          H       0.92157   0.55290   0.95431
H          H       0.07843   0.55290   0.04569
H          H       0.67469   0.14584   0.36108
H          H       0.32531   0.14584   0.63892
H          H       0.17469   0.64584   0.36108
H          H       0.82531   0.64584   0.63892
H          H       0.32531   0.85416   0.63892
H          H       0.67469   0.85416   0.36108
H          H       0.82531   0.35416   0.63892
H          H       0.17469   0.35416   0.36108
H          H       0.71715   0.17342   0.48650
H          H       0.28285   0.17342   0.51350
H          H       0.21715   0.67342   0.48650
H          H       0.78285   0.67342   0.51350
H          H       0.28285   0.82658   0.51350
H          H       0.71715   0.82658   0.48650
H          H       0.78285   0.32658   0.51350
H          H       0.21715   0.32658   0.48650
H          H       0.66966   0.25523   0.49963
H          H       0.33034   0.25523   0.50037
H          H       0.16966   0.75523   0.49963
H          H       0.83034   0.75523   0.50037
H          H       0.33034   0.74477   0.50037
H          H       0.66966   0.74477   0.49963
H          H       0.83034   0.24477   0.50037
H          H       0.16966   0.24477   0.49963
H          H       0.62711   0.22788   0.37376
H          H       0.37289   0.22788   0.62624
H          H       0.12711   0.72788   0.37376
H          H       0.87289   0.72788   0.62624
H          H       0.37289   0.77212   0.62624
H          H       0.62711   0.77212   0.37376
H          H       0.87289   0.27212   0.62624
H          H       0.12711   0.27212   0.37376
H          H       0.60201   0.18071   0.28794
H          H       0.39799   0.18071   0.71206
H          H       0.10201   0.68071   0.28794
H          H       0.89799   0.68071   0.71206
H          H       0.39799   0.81929   0.71206
H          H       0.60201   0.81929   0.28794
H          H       0.89799   0.31929   0.71206
H          H       0.10201   0.31929   0.28794
C          C       0.52391   0.93579   0.58354
C          C       0.47609   0.93579   0.41646
C          C       0.02391   0.43579   0.58354
C          C       0.97609   0.43579   0.41646
C          C       0.47609   0.06421   0.41646
C          C       0.52391   0.06421   0.58354
C          C       0.97609   0.56421   0.41646
C          C       0.02391   0.56421   0.58354
C          C       0.52332   0.96783   0.59257
C          C       0.47668   0.96783   0.40743
C          C       0.02332   0.46783   0.59257
C          C       0.97668   0.46783   0.40743
C          C       0.47668   0.03217   0.40743
C          C       0.52332   0.03217   0.59257
C          C       0.97668   0.53217   0.40743
C          C       0.02332   0.53217   0.59257
C          C       0.54497   0.98432   0.69579
C          C       0.45503   0.98432   0.30421
C          C       0.04497   0.48432   0.69579
C          C       0.95503   0.48432   0.30421
C          C       0.45503   0.01568   0.30421
C          C       0.54497   0.01568   0.69579
C          C       0.95503   0.51568   0.30421
C          C       0.04497   0.51568   0.69579
C          C       0.45089   0.91717   0.34772
C          C       0.54911   0.91717   0.65228
C          C       0.95089   0.41717   0.34772
C          C       0.04911   0.41717   0.65228
C          C       0.54911   0.08283   0.65228
C          C       0.45089   0.08283   0.34772
C          C       0.04911   0.58283   0.65228
C          C       0.95089   0.58283   0.34772
C          C       0.54654   0.88918   0.73864
C          C       0.45346   0.88918   0.26136
C          C       0.04654   0.38918   0.73864
C          C       0.95346   0.38918   0.26136
C          C       0.45346   0.11082   0.26136
C          C       0.54654   0.11082   0.73864
C          C       0.95346   0.61082   0.26136
C          C       0.04654   0.61082   0.73864
C          C       0.56958   0.87055   0.79017
C          C       0.43042   0.87055   0.20983
C          C       0.06958   0.37055   0.79017
C          C       0.93042   0.37055   0.20983
C          C       0.43042   0.12945   0.20983
C          C       0.56958   0.12945   0.79017
C          C       0.93042   0.62945   0.20983
C          C       0.06958   0.62945   0.79017
C          C       0.59595   0.87961   0.75722
C          C       0.40405   0.87961   0.24278
C          C       0.09595   0.37961   0.75722
C          C       0.90405   0.37961   0.24278
C          C       0.40405   0.12039   0.24278
C          C       0.59595   0.12039   0.75722
C          C       0.90405   0.62039   0.24278
C          C       0.09595   0.62039   0.75722
C          C       0.59864   0.90740   0.67210
C          C       0.40136   0.90740   0.32790
C          C       0.09864   0.40740   0.67210
C          C       0.90136   0.40740   0.32790
C          C       0.40136   0.09260   0.32790
C          C       0.59864   0.09260   0.67210
C          C       0.90136   0.59260   0.32790
C          C       0.09864   0.59260   0.67210
C          C       0.57550   0.92569   0.61697
C          C       0.42450   0.92569   0.38303
C          C       0.07550   0.42569   0.61697
C          C       0.92450   0.42569   0.38303
C          C       0.42450   0.07431   0.38303
C          C       0.57550   0.07431   0.61697
C          C       0.92450   0.57431   0.38303
C          C       0.07550   0.57431   0.61697
C          C       0.67377   0.16633   0.89656
C          C       0.32623   0.16633   0.10344
C          C       0.17377   0.66633   0.89656
C          C       0.82623   0.66633   0.10344
C          C       0.32623   0.83367   0.10344
C          C       0.67377   0.83367   0.89656
C          C       0.82623   0.33367   0.10344
C          C       0.17377   0.33367   0.89656
C          C       0.69828   0.18225   0.89055
C          C       0.30172   0.18225   0.10945
C          C       0.19828   0.68225   0.89055
C          C       0.80172   0.68225   0.10945
C          C       0.30172   0.81775   0.10945
C          C       0.69828   0.81775   0.89055
C          C       0.80172   0.31775   0.10945
C          C       0.19828   0.31775   0.89055
C          C       0.69797   0.21392   0.88426
C          C       0.30203   0.21392   0.11574
C          C       0.19797   0.71392   0.88426
C          C       0.80203   0.71392   0.11574
C          C       0.30203   0.78608   0.11574
C          C       0.69797   0.78608   0.88426
C          C       0.80203   0.28608   0.11574
C          C       0.19797   0.28608   0.88426
C          C       0.67375   0.22954   0.90650
C          C       0.32625   0.22954   0.09350
C          C       0.17375   0.72954   0.90650
C          C       0.82625   0.72954   0.09350
C          C       0.32625   0.77046   0.09350
C          C       0.67375   0.77046   0.90650
C          C       0.82625   0.27046   0.09350
C          C       0.17375   0.27046   0.90650
C          C       0.64923   0.21360   0.91395
C          C       0.35077   0.21360   0.08605
C          C       0.14923   0.71360   0.91395
C          C       0.85077   0.71360   0.08605
C          C       0.35077   0.78640   0.08605
C          C       0.64923   0.78640   0.91395
C          C       0.85077   0.28640   0.08605
C          C       0.14923   0.28640   0.91395
C          C       0.64876   0.18197   0.89865
C          C       0.35124   0.18197   0.10135
C          C       0.14876   0.68197   0.89865
C          C       0.85124   0.68197   0.10135
C          C       0.35124   0.81803   0.10135
C          C       0.64876   0.81803   0.89865
C          C       0.85124   0.31803   0.10135
C          C       0.14876   0.31803   0.89865
C          C       0.72028   0.22990   0.81005
C          C       0.27972   0.22990   0.18995
C          C       0.22028   0.72990   0.81005
C          C       0.77972   0.72990   0.18995
C          C       0.27972   0.77010   0.18995
C          C       0.72028   0.77010   0.81005
C          C       0.77972   0.27010   0.18995
C          C       0.22028   0.27010   0.81005
C          C       0.74144   0.24420   0.94210
C          C       0.25856   0.24420   0.05790
C          C       0.24144   0.74420   0.94210
C          C       0.75856   0.74420   0.05790
C          C       0.25856   0.75580   0.05790
C          C       0.74144   0.75580   0.94210
C          C       0.75856   0.25580   0.05790
C          C       0.24144   0.25580   0.94210
C          C       0.62192   0.16597   0.86847
C          C       0.37808   0.16597   0.13153
C          C       0.12192   0.66597   0.86847
C          C       0.87808   0.66597   0.13153
C          C       0.37808   0.83403   0.13153
C          C       0.62192   0.83403   0.86847
C          C       0.87808   0.33403   0.13153
C          C       0.12192   0.33403   0.86847
N          N       0.62048   0.13845   0.80631
N          N       0.37952   0.13845   0.19369
N          N       0.12048   0.63845   0.80631
N          N       0.87952   0.63845   0.19369
N          N       0.37952   0.86155   0.19369
N          N       0.62048   0.86155   0.80631
N          N       0.87952   0.36155   0.19369
N          N       0.12048   0.36155   0.80631
H          H       0.56194   0.97324   0.78185
H          H       0.43806   0.97324   0.21815
H          H       0.06194   0.47324   0.78185
H          H       0.93806   0.47324   0.21815
H          H       0.43806   0.02676   0.21815
H          H       0.56194   0.02676   0.78185
H          H       0.93806   0.52676   0.21815
H          H       0.06194   0.52676   0.78185
H          H       0.52666   0.88157   0.76746
H          H       0.47334   0.88157   0.23254
H          H       0.02666   0.38157   0.76746
H          H       0.97334   0.38157   0.23254
H          H       0.47334   0.11843   0.23254
H          H       0.52666   0.11843   0.76746
H          H       0.97334   0.61843   0.23254
H          H       0.02666   0.61843   0.76746
H          H       0.56650   0.84951   0.85794
H          H       0.43350   0.84951   0.14206
H          H       0.06650   0.34951   0.85794
H          H       0.93350   0.34951   0.14206
H          H       0.43350   0.15049   0.14206
H          H       0.56650   0.15049   0.85794
H          H       0.93350   0.65049   0.14206
H          H       0.06650   0.65049   0.85794
H          H       0.61874   0.91454   0.64378
H          H       0.38126   0.91454   0.35622
H          H       0.11874   0.41454   0.64378
H          H       0.88126   0.41454   0.35622
H          H       0.38126   0.08546   0.35622
H          H       0.61874   0.08546   0.64378
H          H       0.88126   0.58546   0.35622
H          H       0.11874   0.58546   0.64378
H          H       0.57830   0.94625   0.54363
H          H       0.42170   0.94625   0.45637
H          H       0.07830   0.44625   0.54363
H          H       0.92170   0.44625   0.45637
H          H       0.42170   0.05375   0.45637
H          H       0.57830   0.05375   0.54363
H          H       0.92170   0.55375   0.45637
H          H       0.07830   0.55375   0.54363
H          H       0.67410   0.14189   0.88856
H          H       0.32590   0.14189   0.11144
H          H       0.17410   0.64189   0.88856
H          H       0.82590   0.64189   0.11144
H          H       0.32590   0.85811   0.11144
H          H       0.67410   0.85811   0.88856
H          H       0.82590   0.35811   0.11144
H          H       0.17410   0.35811   0.88856
H          H       0.71685   0.16992   0.87338
H          H       0.28315   0.16992   0.12662
H          H       0.21685   0.66992   0.87338
H          H       0.78315   0.66992   0.12662
H          H       0.28315   0.83008   0.12662
H          H       0.71685   0.83008   0.87338
H          H       0.78315   0.33008   0.12662
H          H       0.21685   0.33008   0.87338
H          H       0.67322   0.25401   0.90124
H          H       0.32678   0.25401   0.09876
H          H       0.17322   0.75401   0.90124
H          H       0.82678   0.75401   0.09876
H          H       0.32678   0.74599   0.09876
H          H       0.67322   0.74599   0.90124
H          H       0.82678   0.24599   0.09876
H          H       0.17322   0.24599   0.90124
H          H       0.63025   0.22606   0.91848
H          H       0.36975   0.22606   0.08152
H          H       0.13025   0.72606   0.91848
H          H       0.86975   0.72606   0.08152
H          H       0.36975   0.77394   0.08152
H          H       0.63025   0.77394   0.91848
H          H       0.86975   0.27394   0.08152
H          H       0.13025   0.27394   0.91848
H          H       0.60345   0.17839   0.88550
H          H       0.39655   0.17839   0.11450
H          H       0.10345   0.67839   0.88550
H          H       0.89655   0.67839   0.11450
H          H       0.39655   0.82161   0.11450
H          H       0.60345   0.82161   0.88550
H          H       0.89655   0.32161   0.11450
H          H       0.10345   0.32161   0.88550
C          C       0.50000   0.98387   1.00000
C          C       0.00000   0.48387   1.00000
C          C       0.50000   0.01613   0.00000
C          C       0.00000   0.51613   0.00000
C          C       0.50000   0.92054   1.00000
C          C       0.00000   0.42054   1.00000
C          C       0.50000   0.07946   0.00000
C          C       0.00000   0.57946   0.00000
H          H       0.50000   0.89612   1.00000
H          H       0.00000   0.39612   1.00000
H          H       0.50000   0.10388   0.00000
H          H       0.00000   0.60388   0.00000
C          C       0.50000   0.98388   0.50000
C          C       0.00000   0.48388   0.50000
C          C       0.50000   0.01612   0.50000
C          C       0.00000   0.51612   0.50000
C          C       0.50000   0.92056   0.50000
C          C       0.00000   0.42056   0.50000
C          C       0.50000   0.07944   0.50000
C          C       0.00000   0.57944   0.50000
H          H       0.50000   0.89614   0.50000
H          H       0.00000   0.39614   0.50000
H          H       0.50000   0.10386   0.50000
H          H       0.00000   0.60386   0.50000
