data_crystal

_cell_length_a    36.98760
_cell_length_b    36.98760
_cell_length_c    6.98240
_cell_angle_alpha 90.00000
_cell_angle_beta  90.00000
_cell_angle_gamma 90.00000

_symmetry_space_group_name_Hall 'P 1'
_symmetry_space_group_name_H-M  'P 1'

loop_
_symmetry_equiv_pos_as_xyz
 'x,y,z'

loop_
_atom_site_label
_atom_site_type_symbol
_atom_site_fract_x
_atom_site_fract_y
_atom_site_fract_z
C          C       0.50061   0.98472   0.21523
C          C       0.49939   0.01528   0.71523
C          C       0.50059   0.94805   0.10666
C          C       0.49941   0.05195   0.60666
C          C       0.49967   0.90981   0.20837
C          C       0.50033   0.09019   0.70837
C          C       0.46641   0.89251   0.25138
C          C       0.53359   0.10749   0.75138
C          C       0.46334   0.85413   0.27759
C          C       0.53666   0.14587   0.77759
C          C       0.49313   0.82988   0.26145
C          C       0.50687   0.17012   0.76145
C          C       0.52694   0.84720   0.23149
C          C       0.47306   0.15280   0.73149
C          C       0.53008   0.88589   0.20716
C          C       0.46992   0.11411   0.70716
C          C       0.48666   0.78790   0.27648
C          C       0.51334   0.21210   0.77648
C          C       0.56406   0.40638   0.16175
C          C       0.43594   0.59362   0.66175
C          C       0.59083   0.43191   0.16216
C          C       0.40917   0.56809   0.66216
C          C       0.57669   0.46420   0.22847
C          C       0.42331   0.53580   0.72847
N          N       0.54033   0.45811   0.26633
N          N       0.45967   0.54189   0.76633
C          C       0.53259   0.42204   0.22868
C          C       0.46741   0.57796   0.72868
C          C       0.40636   0.43670   0.34087
C          C       0.59364   0.56330   0.84087
C          C       0.43199   0.40989   0.34170
C          C       0.56801   0.59011   0.84170
C          C       0.46428   0.42379   0.27343
C          C       0.53572   0.57621   0.77343
N          N       0.45787   0.46006   0.23440
N          N       0.54213   0.53994   0.73440
C          C       0.42187   0.46814   0.27223
C          C       0.57813   0.53186   0.77223
C          C       0.49797   0.40253   0.25079
C          C       0.50203   0.59747   0.75079
C          C       0.40223   0.50269   0.24920
C          C       0.59777   0.49731   0.74920
C          C       0.50321   0.63937   0.25039
C          C       0.49679   0.36063   0.75039
C          C       0.63909   0.49716   0.25166
C          C       0.36091   0.50284   0.75166
C          C       0.53400   0.66001   0.19061
C          C       0.46600   0.33999   0.69061
C          C       0.53570   0.69876   0.19035
C          C       0.46430   0.30124   0.69035
C          C       0.50656   0.72112   0.24617
C          C       0.49344   0.27888   0.74617
C          C       0.47533   0.70180   0.30504
C          C       0.52467   0.29820   0.80504
C          C       0.47395   0.66271   0.30849
C          C       0.52605   0.33729   0.80849
C          C       0.66001   0.46651   0.31096
C          C       0.33999   0.53349   0.81096
C          C       0.69879   0.46509   0.31032
C          C       0.30121   0.53491   0.81032
C          C       0.72089   0.49452   0.25573
C          C       0.27911   0.50548   0.75573
C          C       0.70127   0.52567   0.19840
C          C       0.29873   0.47433   0.69840
C          C       0.66218   0.52672   0.19508
C          C       0.33782   0.47328   0.69508
N          N       0.51046   0.76162   0.24047
N          N       0.48954   0.23838   0.74047
C          C       0.01537   0.50066   0.28573
C          C       0.98463   0.49934   0.78573
C          C       0.05200   0.50058   0.39460
C          C       0.94800   0.49942   0.89460
C          C       0.09031   0.49970   0.29332
C          C       0.90969   0.50030   0.79332
C          C       0.10764   0.46647   0.25009
C          C       0.89236   0.53353   0.75009
C          C       0.14604   0.46342   0.22413
C          C       0.85396   0.53658   0.72413
C          C       0.17029   0.49320   0.24074
C          C       0.82971   0.50680   0.74074
C          C       0.15294   0.52699   0.27100
C          C       0.84706   0.47301   0.77100
C          C       0.11424   0.53011   0.29510
C          C       0.88576   0.46989   0.79510
C          C       0.21229   0.48674   0.22583
C          C       0.78771   0.51326   0.72583
N          N       0.23858   0.51054   0.26197
N          N       0.76142   0.48946   0.76197
H          H       0.44189   0.90848   0.25091
H          H       0.55811   0.09152   0.75091
H          H       0.43667   0.84308   0.30315
H          H       0.56333   0.15692   0.80315
H          H       0.55105   0.83078   0.21998
H          H       0.44895   0.16922   0.71998
H          H       0.55637   0.89685   0.17175
H          H       0.44363   0.10315   0.67175
H          H       0.45950   0.77992   0.31546
H          H       0.54050   0.22008   0.81546
H          H       0.56810   0.37946   0.10908
H          H       0.43190   0.62054   0.60908
H          H       0.61758   0.42636   0.11188
H          H       0.38242   0.57364   0.61188
H          H       0.37939   0.43266   0.39249
H          H       0.62061   0.56734   0.89249
H          H       0.42646   0.38322   0.39319
H          H       0.57354   0.61678   0.89319
H          H       0.47646   0.47778   0.17336
H          H       0.52354   0.52222   0.67336
H          H       0.55754   0.64674   0.13635
H          H       0.44246   0.35326   0.63635
H          H       0.56040   0.71152   0.14180
H          H       0.43960   0.28848   0.64180
H          H       0.45183   0.71666   0.35288
H          H       0.54817   0.28334   0.85288
H          H       0.44953   0.65134   0.36497
H          H       0.55047   0.34866   0.86497
H          H       0.64696   0.44291   0.36604
H          H       0.35304   0.55709   0.86604
H          H       0.71178   0.44042   0.35759
H          H       0.28822   0.55958   0.85759
H          H       0.71593   0.54933   0.15091
H          H       0.28407   0.45067   0.65091
H          H       0.65063   0.55119   0.14050
H          H       0.34937   0.44881   0.64050
H          H       0.09168   0.44195   0.25013
H          H       0.90832   0.55805   0.75013
H          H       0.15710   0.43676   0.19834
H          H       0.84290   0.56324   0.69834
H          H       0.16935   0.55110   0.28290
H          H       0.83065   0.44890   0.78290
H          H       0.10327   0.55638   0.33073
H          H       0.89673   0.44362   0.83073
H          H       0.22029   0.45960   0.18668
H          H       0.77971   0.54040   0.68668
C          C       0.50055   0.01552   0.29661
C          C       0.49945   0.98448   0.79661
C          C       0.50031   0.05209   0.40606
C          C       0.49969   0.94791   0.90606
C          C       0.50342   0.09045   0.30650
C          C       0.49658   0.90955   0.80650
C          C       0.53705   0.10890   0.30194
C          C       0.46295   0.89110   0.80194
C          C       0.53991   0.14739   0.28237
C          C       0.46009   0.85261   0.78237
C          C       0.50949   0.17073   0.26476
C          C       0.49051   0.82927   0.76476
C          C       0.47577   0.15232   0.25421
C          C       0.52423   0.84768   0.75421
C          C       0.47288   0.11344   0.27429
C          C       0.52712   0.88656   0.77429
C          C       0.51542   0.21293   0.26619
C          C       0.48458   0.78707   0.76619
C          C       0.43595   0.59438   0.16258
C          C       0.56405   0.40562   0.66258
C          C       0.40922   0.56880   0.16135
C          C       0.59078   0.43120   0.66135
C          C       0.42333   0.53646   0.22742
C          C       0.57667   0.46354   0.72742
N          N       0.45968   0.54253   0.26562
N          N       0.54032   0.45747   0.76562
C          C       0.46743   0.57863   0.22887
C          C       0.53257   0.42137   0.72887
C          C       0.59357   0.56393   0.34257
C          C       0.40643   0.43607   0.84257
C          C       0.56796   0.59073   0.34263
C          C       0.43204   0.40927   0.84263
C          C       0.53572   0.57681   0.27398
C          C       0.46428   0.42319   0.77398
N          N       0.54213   0.54054   0.23508
N          N       0.45787   0.45946   0.73508
C          C       0.57810   0.53250   0.27346
C          C       0.42190   0.46750   0.77346
C          C       0.50206   0.59806   0.25106
C          C       0.49794   0.40194   0.75106
C          C       0.59776   0.49799   0.25028
C          C       0.40224   0.50201   0.75028
C          C       0.49698   0.36118   0.25038
C          C       0.50302   0.63882   0.75038
C          C       0.36089   0.50364   0.25122
C          C       0.63911   0.49636   0.75122
C          C       0.46620   0.34029   0.19256
C          C       0.53380   0.65971   0.69256
C          C       0.46475   0.30149   0.19286
C          C       0.53525   0.69851   0.69286
C          C       0.49421   0.27933   0.24654
C          C       0.50579   0.72067   0.74654
C          C       0.52540   0.29892   0.30356
C          C       0.47460   0.70108   0.80356
C          C       0.52649   0.33801   0.30697
C          C       0.47351   0.66199   0.80697
C          C       0.34014   0.53435   0.31121
C          C       0.65986   0.46565   0.81121
C          C       0.30139   0.53592   0.31183
C          C       0.69861   0.46408   0.81183
C          C       0.27909   0.50671   0.25632
C          C       0.72091   0.49329   0.75632
C          C       0.29851   0.47549   0.19803
C          C       0.70149   0.52451   0.69803
C          C       0.33763   0.47423   0.19445
C          C       0.66237   0.52577   0.69445
N          N       0.49053   0.23878   0.24472
N          N       0.50947   0.76122   0.74472
C          C       0.98457   0.50062   0.20435
C          C       0.01543   0.49938   0.70435
C          C       0.94796   0.50040   0.09520
C          C       0.05204   0.49960   0.59520
C          C       0.90967   0.50360   0.19514
C          C       0.09033   0.49640   0.69514
C          C       0.89128   0.53725   0.19943
C          C       0.10872   0.46275   0.69943
C          C       0.85280   0.54018   0.21915
C          C       0.14720   0.45982   0.71915
C          C       0.82944   0.50979   0.23719
C          C       0.17056   0.49021   0.73719
C          C       0.84780   0.47605   0.24812
C          C       0.15220   0.52395   0.74812
C          C       0.88666   0.47310   0.22790
C          C       0.11334   0.52690   0.72790
C          C       0.78726   0.51575   0.23573
C          C       0.21274   0.48425   0.73573
N          N       0.76143   0.49086   0.25753
N          N       0.23857   0.50914   0.75753
H          H       0.56150   0.09369   0.32954
H          H       0.43850   0.90631   0.82954
H          H       0.56664   0.15923   0.28955
H          H       0.43336   0.84077   0.78955
H          H       0.45126   0.16803   0.23938
H          H       0.54874   0.83197   0.73938
H          H       0.44613   0.10165   0.28016
H          H       0.55387   0.89835   0.78016
H          H       0.54312   0.22151   0.28632
H          H       0.45688   0.77849   0.78632
H          H       0.43187   0.62142   0.11194
H          H       0.56813   0.37858   0.61194
H          H       0.38250   0.57434   0.11019
H          H       0.61750   0.42566   0.61019
H          H       0.62049   0.56796   0.39512
H          H       0.37951   0.43204   0.89512
H          H       0.57347   0.61745   0.39360
H          H       0.42653   0.38255   0.89360
H          H       0.52358   0.52283   0.17368
H          H       0.47642   0.47717   0.67368
H          H       0.44245   0.35335   0.13960
H          H       0.55755   0.64665   0.63960
H          H       0.44001   0.28855   0.14652
H          H       0.55999   0.71145   0.64652
H          H       0.54905   0.28424   0.35093
H          H       0.45095   0.71576   0.85093
H          H       0.55094   0.34950   0.36218
H          H       0.44906   0.65050   0.86218
H          H       0.35330   0.55793   0.36551
H          H       0.64670   0.44207   0.86551
H          H       0.28856   0.56059   0.36033
H          H       0.71144   0.43941   0.86033
H          H       0.28371   0.45190   0.15095
H          H       0.71629   0.54810   0.65095
H          H       0.34906   0.44974   0.13921
H          H       0.65094   0.55026   0.63921
H          H       0.90652   0.56167   0.17142
H          H       0.09348   0.43833   0.67142
H          H       0.84099   0.56692   0.21168
H          H       0.15901   0.43308   0.71168
H          H       0.83206   0.45156   0.26332
H          H       0.16794   0.54844   0.76332
H          H       0.89842   0.44634   0.22228
H          H       0.10158   0.55366   0.72228
H          H       0.77868   0.54344   0.21529
H          H       0.22132   0.45656   0.71529
