data_crystal

_cell_length_a    51.95570
_cell_length_b    51.95570
_cell_length_c    7.22700
_cell_angle_alpha 90.00000
_cell_angle_beta  90.00000
_cell_angle_gamma 120.00000

_symmetry_space_group_name_Hall 'P 1'
_symmetry_space_group_name_H-M  'P 1'

loop_
_symmetry_equiv_pos_as_xyz
 'x,y,z'

loop_
_atom_site_label
_atom_site_type_symbol
_atom_site_fract_x
_atom_site_fract_y
_atom_site_fract_z
C          C       0.40097   0.83794   0.23251
C          C       0.16206   0.56303   0.23251
C          C       0.43697   0.59903   0.23251
C          C       0.59903   0.16206   0.23251
C          C       0.83794   0.43697   0.23251
C          C       0.56303   0.40097   0.23251
C          C       0.68179   0.31859   0.26789
C          C       0.68141   0.36320   0.26789
C          C       0.63680   0.31821   0.26789
C          C       0.31821   0.68141   0.26789
C          C       0.31859   0.63680   0.26789
C          C       0.36320   0.68179   0.26789
C          C       0.69701   0.34870   0.26777
C          C       0.65130   0.34831   0.26777
C          C       0.65169   0.30299   0.26777
C          C       0.30299   0.65130   0.26777
C          C       0.34870   0.65169   0.26777
C          C       0.34831   0.69701   0.26777
C          C       0.63585   0.27089   0.26684
C          C       0.72911   0.36496   0.26684
C          C       0.63504   0.36415   0.26684
C          C       0.36415   0.72911   0.26684
C          C       0.27089   0.63504   0.26684
C          C       0.36496   0.63585   0.26684
C          C       0.60805   0.25510   0.34168
C          C       0.74490   0.35295   0.34168
C          C       0.64705   0.39195   0.34168
C          C       0.39195   0.74490   0.34168
C          C       0.25510   0.64705   0.34168
C          C       0.35295   0.60805   0.34168
C          C       0.59319   0.22521   0.33789
C          C       0.77479   0.36798   0.33789
C          C       0.63202   0.40681   0.33789
C          C       0.40681   0.77479   0.33789
C          C       0.22521   0.63202   0.33789
C          C       0.36798   0.59319   0.33789
C          C       0.60585   0.21020   0.26514
C          C       0.78980   0.39565   0.26514
C          C       0.60435   0.39415   0.26514
C          C       0.39415   0.78980   0.26514
C          C       0.21020   0.60435   0.26514
C          C       0.39565   0.60585   0.26514
C          C       0.63360   0.22568   0.19068
C          C       0.77432   0.40792   0.19068
C          C       0.59208   0.36640   0.19068
C          C       0.36640   0.77432   0.19068
C          C       0.22568   0.59208   0.19068
C          C       0.40792   0.63360   0.19068
C          C       0.64824   0.25558   0.19008
C          C       0.74442   0.39266   0.19008
C          C       0.60734   0.35176   0.19008
C          C       0.35176   0.74442   0.19008
C          C       0.25558   0.60734   0.19008
C          C       0.39266   0.64824   0.19008
N          N       0.82054   0.41002   0.26569
N          N       0.58998   0.41052   0.26569
N          N       0.58948   0.17946   0.26569
N          N       0.17946   0.58998   0.26569
N          N       0.41002   0.58948   0.26569
N          N       0.41052   0.82054   0.26569
H          H       0.37855   0.82996   0.20466
H          H       0.17004   0.54859   0.20466
H          H       0.45141   0.62145   0.20466
H          H       0.62145   0.17004   0.20466
H          H       0.82996   0.45141   0.20466
H          H       0.54859   0.37855   0.20466
H          H       0.69345   0.30720   0.26779
H          H       0.69280   0.38625   0.26779
H          H       0.61375   0.30655   0.26779
H          H       0.30655   0.69280   0.26779
H          H       0.30720   0.61375   0.26779
H          H       0.38625   0.69345   0.26779
H          H       0.59781   0.26556   0.40829
H          H       0.73444   0.33225   0.40829
H          H       0.66775   0.40219   0.40829
H          H       0.40219   0.73444   0.40829
H          H       0.26556   0.66775   0.40829
H          H       0.33225   0.59781   0.40829
H          H       0.57187   0.21363   0.39625
H          H       0.78637   0.35824   0.39625
H          H       0.64176   0.42813   0.39625
H          H       0.42813   0.78637   0.39625
H          H       0.21363   0.64176   0.39625
H          H       0.35824   0.57187   0.39625
H          H       0.64382   0.21503   0.12652
H          H       0.78497   0.42879   0.12652
H          H       0.57121   0.35618   0.12652
H          H       0.35618   0.78497   0.12652
H          H       0.21503   0.57121   0.12652
H          H       0.42879   0.64382   0.12652
H          H       0.66891   0.26647   0.12313
H          H       0.73353   0.40244   0.12313
H          H       0.59756   0.33109   0.12313
H          H       0.33109   0.73353   0.12313
H          H       0.26647   0.59756   0.12313
H          H       0.40244   0.66891   0.12313
C          C       0.42044   0.86921   0.23549
C          C       0.13079   0.55123   0.23549
C          C       0.44877   0.57956   0.23549
C          C       0.57956   0.13079   0.23549
C          C       0.86921   0.44877   0.23549
C          C       0.55123   0.42044   0.23549
C          C       0.44977   0.88116   0.27472
C          C       0.11884   0.56861   0.27472
C          C       0.43139   0.55023   0.27472
C          C       0.55023   0.11884   0.27472
C          C       0.88116   0.43139   0.27472
C          C       0.56861   0.44977   0.27472
C          C       0.46779   0.91085   0.27604
C          C       0.08915   0.55694   0.27604
C          C       0.44306   0.53221   0.27604
C          C       0.53221   0.08915   0.27604
C          C       0.91085   0.44306   0.27604
C          C       0.55694   0.46779   0.27604
C          C       0.45674   0.92890   0.23821
C          C       0.07110   0.52784   0.23821
C          C       0.47216   0.54326   0.23821
C          C       0.54326   0.07110   0.23821
C          C       0.92890   0.47216   0.23821
C          C       0.52784   0.45674   0.23821
C          C       0.42759   0.91716   0.19921
C          C       0.08284   0.51043   0.19921
C          C       0.48957   0.57241   0.19921
C          C       0.57241   0.08284   0.19921
C          C       0.91716   0.48957   0.19921
C          C       0.51043   0.42759   0.19921
C          C       0.40954   0.88748   0.19790
C          C       0.11252   0.52206   0.19790
C          C       0.47794   0.59046   0.19790
C          C       0.59046   0.11252   0.19790
C          C       0.88748   0.47794   0.19790
C          C       0.52206   0.40954   0.19790
C          C       0.47532   0.95944   0.23889
C          C       0.04056   0.51588   0.23889
C          C       0.48412   0.52468   0.23889
C          C       0.52468   0.04056   0.23889
C          C       0.95944   0.48412   0.23889
C          C       0.51588   0.47532   0.23889
C          C       0.49089   0.98502   0.23918
C          C       0.01498   0.50587   0.23918
C          C       0.49413   0.50911   0.23918
C          C       0.50911   0.01498   0.23918
C          C       0.98502   0.49413   0.23918
C          C       0.50587   0.49089   0.23918
H          H       0.45879   0.86763   0.30463
H          H       0.13237   0.59116   0.30463
H          H       0.40884   0.54121   0.30463
H          H       0.54121   0.13237   0.30463
H          H       0.86763   0.40884   0.30463
H          H       0.59116   0.45879   0.30463
H          H       0.49031   0.91973   0.30675
H          H       0.08027   0.57058   0.30675
H          H       0.42942   0.50969   0.30675
H          H       0.50969   0.08027   0.30675
H          H       0.91973   0.42942   0.30675
H          H       0.57058   0.49031   0.30675
H          H       0.41884   0.93094   0.16930
H          H       0.06906   0.48790   0.16930
H          H       0.51210   0.58116   0.16930
H          H       0.58116   0.06906   0.16930
H          H       0.93094   0.51210   0.16930
H          H       0.48790   0.41884   0.16930
H          H       0.38705   0.87877   0.16686
H          H       0.12123   0.50828   0.16686
H          H       0.49172   0.61295   0.16686
H          H       0.61295   0.12123   0.16686
H          H       0.87877   0.49172   0.16686
H          H       0.50828   0.38705   0.16686
C          C       0.40097   0.83794   0.73251
C          C       0.16206   0.56303   0.73251
C          C       0.43697   0.59903   0.73251
C          C       0.59903   0.16206   0.73251
C          C       0.83794   0.43697   0.73251
C          C       0.56303   0.40097   0.73251
C          C       0.68179   0.31859   0.76789
C          C       0.68141   0.36320   0.76789
C          C       0.63680   0.31821   0.76789
C          C       0.31821   0.68141   0.76789
C          C       0.31859   0.63680   0.76789
C          C       0.36320   0.68179   0.76789
C          C       0.69701   0.34870   0.76777
C          C       0.65130   0.34831   0.76777
C          C       0.65169   0.30299   0.76777
C          C       0.30299   0.65130   0.76777
C          C       0.34870   0.65169   0.76777
C          C       0.34831   0.69701   0.76777
C          C       0.63585   0.27089   0.76684
C          C       0.72911   0.36496   0.76684
C          C       0.63504   0.36415   0.76684
C          C       0.36415   0.72911   0.76684
C          C       0.27089   0.63504   0.76684
C          C       0.36496   0.63585   0.76684
C          C       0.60805   0.25510   0.84168
C          C       0.74490   0.35295   0.84168
C          C       0.64705   0.39195   0.84168
C          C       0.39195   0.74490   0.84168
C          C       0.25510   0.64705   0.84168
C          C       0.35295   0.60805   0.84168
C          C       0.59319   0.22521   0.83789
C          C       0.77479   0.36798   0.83789
C          C       0.63202   0.40681   0.83789
C          C       0.40681   0.77479   0.83789
C          C       0.22521   0.63202   0.83789
C          C       0.36798   0.59319   0.83789
C          C       0.60585   0.21020   0.76514
C          C       0.78980   0.39565   0.76514
C          C       0.60435   0.39415   0.76514
C          C       0.39415   0.78980   0.76514
C          C       0.21020   0.60435   0.76514
C          C       0.39565   0.60585   0.76514
C          C       0.63360   0.22568   0.69068
C          C       0.77432   0.40792   0.69068
C          C       0.59208   0.36640   0.69068
C          C       0.36640   0.77432   0.69068
C          C       0.22568   0.59208   0.69068
C          C       0.40792   0.63360   0.69068
C          C       0.64824   0.25558   0.69008
C          C       0.74442   0.39266   0.69008
C          C       0.60734   0.35176   0.69008
C          C       0.35176   0.74442   0.69008
C          C       0.25558   0.60734   0.69008
C          C       0.39266   0.64824   0.69008
N          N       0.82054   0.41002   0.76569
N          N       0.58998   0.41052   0.76569
N          N       0.58948   0.17946   0.76569
N          N       0.17946   0.58998   0.76569
N          N       0.41002   0.58948   0.76569
N          N       0.41052   0.82054   0.76569
H          H       0.37855   0.82996   0.70466
H          H       0.17004   0.54859   0.70466
H          H       0.45141   0.62145   0.70466
H          H       0.62145   0.17004   0.70466
H          H       0.82996   0.45141   0.70466
H          H       0.54859   0.37855   0.70466
H          H       0.69345   0.30720   0.76779
H          H       0.69280   0.38625   0.76779
H          H       0.61375   0.30655   0.76779
H          H       0.30655   0.69280   0.76779
H          H       0.30720   0.61375   0.76779
H          H       0.38625   0.69345   0.76779
H          H       0.59781   0.26556   0.90829
H          H       0.73444   0.33225   0.90829
H          H       0.66775   0.40219   0.90829
H          H       0.40219   0.73444   0.90829
H          H       0.26556   0.66775   0.90829
H          H       0.33225   0.59781   0.90829
H          H       0.57187   0.21363   0.89625
H          H       0.78637   0.35824   0.89625
H          H       0.64176   0.42813   0.89625
H          H       0.42813   0.78637   0.89625
H          H       0.21363   0.64176   0.89625
H          H       0.35824   0.57187   0.89625
H          H       0.64382   0.21503   0.62652
H          H       0.78497   0.42879   0.62652
H          H       0.57121   0.35618   0.62652
H          H       0.35618   0.78497   0.62652
H          H       0.21503   0.57121   0.62652
H          H       0.42879   0.64382   0.62652
H          H       0.66891   0.26647   0.62313
H          H       0.73353   0.40244   0.62313
H          H       0.59756   0.33109   0.62313
H          H       0.33109   0.73353   0.62313
H          H       0.26647   0.59756   0.62313
H          H       0.40244   0.66891   0.62313
C          C       0.42044   0.86921   0.73549
C          C       0.13079   0.55123   0.73549
C          C       0.44877   0.57956   0.73549
C          C       0.57956   0.13079   0.73549
C          C       0.86921   0.44877   0.73549
C          C       0.55123   0.42044   0.73549
C          C       0.44977   0.88116   0.77472
C          C       0.11884   0.56861   0.77472
C          C       0.43139   0.55023   0.77472
C          C       0.55023   0.11884   0.77472
C          C       0.88116   0.43139   0.77472
C          C       0.56861   0.44977   0.77472
C          C       0.46779   0.91085   0.77605
C          C       0.08915   0.55694   0.77605
C          C       0.44306   0.53221   0.77605
C          C       0.53221   0.08915   0.77605
C          C       0.91085   0.44306   0.77605
C          C       0.55694   0.46779   0.77605
C          C       0.45674   0.92890   0.73821
C          C       0.07110   0.52784   0.73821
C          C       0.47216   0.54326   0.73821
C          C       0.54326   0.07110   0.73821
C          C       0.92890   0.47216   0.73821
C          C       0.52784   0.45674   0.73821
C          C       0.42759   0.91716   0.69921
C          C       0.08284   0.51043   0.69921
C          C       0.48957   0.57241   0.69921
C          C       0.57241   0.08284   0.69921
C          C       0.91716   0.48957   0.69921
C          C       0.51043   0.42759   0.69921
C          C       0.40954   0.88748   0.69790
C          C       0.11252   0.52206   0.69790
C          C       0.47794   0.59046   0.69790
C          C       0.59046   0.11252   0.69790
C          C       0.88748   0.47794   0.69790
C          C       0.52206   0.40954   0.69790
C          C       0.47532   0.95944   0.73889
C          C       0.04056   0.51588   0.73889
C          C       0.48412   0.52468   0.73889
C          C       0.52468   0.04056   0.73889
C          C       0.95944   0.48412   0.73889
C          C       0.51588   0.47532   0.73889
C          C       0.49089   0.98502   0.73918
C          C       0.01498   0.50587   0.73918
C          C       0.49413   0.50911   0.73918
C          C       0.50911   0.01498   0.73918
C          C       0.98502   0.49413   0.73918
C          C       0.50587   0.49089   0.73918
H          H       0.45879   0.86763   0.80463
H          H       0.13237   0.59116   0.80463
H          H       0.40884   0.54121   0.80463
H          H       0.54121   0.13237   0.80463
H          H       0.86763   0.40884   0.80463
H          H       0.59116   0.45879   0.80463
H          H       0.49031   0.91973   0.80675
H          H       0.08027   0.57058   0.80675
H          H       0.42942   0.50969   0.80675
H          H       0.50969   0.08027   0.80675
H          H       0.91973   0.42942   0.80675
H          H       0.57058   0.49031   0.80675
H          H       0.41884   0.93094   0.66930
H          H       0.06906   0.48790   0.66930
H          H       0.51210   0.58116   0.66930
H          H       0.58116   0.06906   0.66930
H          H       0.93094   0.51210   0.66930
H          H       0.48790   0.41884   0.66930
H          H       0.38705   0.87877   0.66686
H          H       0.12123   0.50828   0.66686
H          H       0.49172   0.61295   0.66686
H          H       0.61295   0.12123   0.66686
H          H       0.87877   0.49172   0.66686
H          H       0.50828   0.38705   0.66686
