data_crystal

_cell_length_a    41.93620
_cell_length_b    37.16000
_cell_length_c    7.21320
_cell_angle_alpha 90.00000
_cell_angle_beta  88.17600
_cell_angle_gamma 90.00000

_symmetry_space_group_name_Hall 'P 1'
_symmetry_space_group_name_H-M  'P 1'

loop_
_symmetry_equiv_pos_as_xyz
 'x,y,z'

loop_
_atom_site_label
_atom_site_type_symbol
_atom_site_fract_x
_atom_site_fract_y
_atom_site_fract_z
C          C       0.52814   0.57682   0.19476
C          C       0.47186   0.57682   0.30524
C          C       0.02814   0.07682   0.19476
C          C       0.97186   0.07682   0.30524
C          C       0.47186   0.42318   0.30524
C          C       0.52814   0.42318   0.19476
C          C       0.97186   0.92318   0.30524
C          C       0.02814   0.92318   0.19476
C          C       0.52772   0.53855   0.18416
C          C       0.47228   0.53855   0.31585
C          C       0.02772   0.03855   0.18416
C          C       0.97228   0.03855   0.31585
C          C       0.47228   0.46145   0.31585
C          C       0.52772   0.46145   0.18416
C          C       0.97228   0.96145   0.31585
C          C       0.02772   0.96145   0.18416
C          C       0.55336   0.51837   0.10146
C          C       0.44664   0.51837   0.39854
C          C       0.05336   0.01837   0.10146
C          C       0.94664   0.01837   0.39854
C          C       0.44664   0.48163   0.39854
C          C       0.55336   0.48163   0.10146
C          C       0.94664   0.98163   0.39854
C          C       0.05336   0.98163   0.10146
C          C       0.55683   0.59884   0.15628
C          C       0.44317   0.59884   0.34372
C          C       0.05683   0.09884   0.15628
C          C       0.94317   0.09884   0.34372
C          C       0.44317   0.40116   0.34372
C          C       0.55683   0.40116   0.15628
C          C       0.94317   0.90116   0.34372
C          C       0.05683   0.90116   0.15628
C          C       0.55433   0.63367   0.07984
C          C       0.44567   0.63367   0.42016
C          C       0.05433   0.13367   0.07984
C          C       0.94567   0.13367   0.42016
C          C       0.44567   0.36633   0.42016
C          C       0.55433   0.36633   0.07984
C          C       0.94567   0.86633   0.42016
C          C       0.05433   0.86633   0.07984
C          C       0.58032   0.65660   0.06225
C          C       0.41968   0.65660   0.43776
C          C       0.08032   0.15660   0.06225
C          C       0.91968   0.15660   0.43776
C          C       0.41968   0.34340   0.43776
C          C       0.58032   0.34340   0.06225
C          C       0.91968   0.84340   0.43776
C          C       0.08032   0.84340   0.06225
C          C       0.61062   0.64545   0.12005
C          C       0.38938   0.64545   0.37994
C          C       0.11062   0.14545   0.12005
C          C       0.88938   0.14545   0.37994
C          C       0.38938   0.35455   0.37994
C          C       0.61062   0.35455   0.12005
C          C       0.88938   0.85455   0.37994
C          C       0.11062   0.85455   0.12005
C          C       0.61340   0.61023   0.19133
C          C       0.38660   0.61023   0.30867
C          C       0.11340   0.11023   0.19133
C          C       0.88660   0.11023   0.30867
C          C       0.38660   0.38977   0.30867
C          C       0.61340   0.38977   0.19133
C          C       0.88660   0.88977   0.30867
C          C       0.11340   0.88977   0.19133
C          C       0.58729   0.58753   0.20927
C          C       0.41271   0.58753   0.29073
C          C       0.08729   0.08753   0.20927
C          C       0.91271   0.08753   0.29073
C          C       0.41271   0.41247   0.29073
C          C       0.58729   0.41247   0.20927
C          C       0.91271   0.91247   0.29073
C          C       0.08729   0.91247   0.20927
C          C       0.63892   0.66750   0.12262
C          C       0.36108   0.66750   0.37739
C          C       0.13892   0.16750   0.12262
C          C       0.86108   0.16750   0.37739
C          C       0.36108   0.33250   0.37739
C          C       0.63892   0.33250   0.12262
C          C       0.86108   0.83250   0.37739
C          C       0.13892   0.83250   0.12262
C          C       0.64460   0.70275   0.07674
C          C       0.35540   0.70275   0.42325
C          C       0.14460   0.20275   0.07674
C          C       0.85540   0.20275   0.42325
C          C       0.35540   0.29725   0.42325
C          C       0.64460   0.29725   0.07674
C          C       0.85540   0.79725   0.42325
C          C       0.14460   0.79725   0.07674
C          C       0.67582   0.71903   0.11215
C          C       0.32418   0.71903   0.38786
C          C       0.17582   0.21903   0.11215
C          C       0.82418   0.21903   0.38786
C          C       0.32418   0.28097   0.38786
C          C       0.67582   0.28097   0.11215
C          C       0.82418   0.78097   0.38786
C          C       0.17582   0.78097   0.11215
C          C       0.67903   0.75551   0.15965
C          C       0.32097   0.75551   0.34035
C          C       0.17903   0.25551   0.15965
C          C       0.82097   0.25551   0.34035
C          C       0.32097   0.24449   0.34035
C          C       0.67903   0.24449   0.15965
C          C       0.82097   0.74449   0.34035
C          C       0.17903   0.74449   0.15965
C          C       0.70850   0.76813   0.21280
C          C       0.29150   0.76813   0.28721
C          C       0.20850   0.26813   0.21280
C          C       0.79150   0.26813   0.28721
C          C       0.29150   0.23187   0.28721
C          C       0.70850   0.23187   0.21280
C          C       0.79150   0.73187   0.28721
C          C       0.20850   0.73187   0.21280
C          C       0.73436   0.74414   0.21734
C          C       0.26564   0.74414   0.28267
C          C       0.23436   0.24414   0.21734
C          C       0.76564   0.24414   0.28267
C          C       0.26564   0.25586   0.28267
C          C       0.73436   0.25586   0.21734
C          C       0.76564   0.75586   0.28267
C          C       0.23436   0.75586   0.21734
N          N       0.73206   0.70966   0.16040
N          N       0.26794   0.70966   0.33960
N          N       0.23206   0.20966   0.16040
N          N       0.76794   0.20966   0.33960
N          N       0.26794   0.29034   0.33960
N          N       0.73206   0.29034   0.16040
N          N       0.76794   0.79034   0.33960
N          N       0.23206   0.79034   0.16040
C          C       0.70380   0.69801   0.10794
C          C       0.29620   0.69801   0.39206
C          C       0.20380   0.19801   0.10794
C          C       0.79620   0.19801   0.39206
C          C       0.29620   0.30199   0.39206
C          C       0.70380   0.30199   0.10794
C          C       0.79620   0.80199   0.39206
C          C       0.20380   0.80199   0.10794
C          C       0.62100   0.72605   0.00445
C          C       0.37900   0.72605   0.49556
C          C       0.12100   0.22605   0.00445
C          C       0.87900   0.22605   0.49556
C          C       0.37900   0.27395   0.49556
C          C       0.62100   0.27395   0.00445
C          C       0.87900   0.77395   0.49556
C          C       0.12100   0.77395   0.00445
N          N       0.60278   0.74635   0.44245
N          N       0.39722   0.74635   0.05755
N          N       0.10278   0.24635   0.44245
N          N       0.89722   0.24635   0.05755
N          N       0.39722   0.25365   0.05755
N          N       0.60278   0.25365   0.44245
N          N       0.89722   0.75365   0.05755
N          N       0.10278   0.75365   0.44245
H          H       0.57298   0.53268   0.03222
H          H       0.42702   0.53268   0.46777
H          H       0.07298   0.03268   0.03222
H          H       0.92702   0.03268   0.46777
H          H       0.42702   0.46732   0.46777
H          H       0.57298   0.46732   0.03222
H          H       0.92702   0.96732   0.46777
H          H       0.07298   0.96732   0.03222
H          H       0.53134   0.64300   0.03218
H          H       0.46866   0.64300   0.46783
H          H       0.03134   0.14300   0.03218
H          H       0.96866   0.14300   0.46783
H          H       0.46866   0.35700   0.46783
H          H       0.53134   0.35700   0.03218
H          H       0.96866   0.85700   0.46783
H          H       0.03134   0.85700   0.03218
H          H       0.57705   0.68330   0.00394
H          H       0.42295   0.68330   0.49606
H          H       0.07705   0.18330   0.00394
H          H       0.92295   0.18330   0.49606
H          H       0.42295   0.31670   0.49606
H          H       0.57705   0.31670   0.00394
H          H       0.92295   0.81670   0.49606
H          H       0.07705   0.81670   0.00394
H          H       0.63652   0.60120   0.23926
H          H       0.36348   0.60120   0.26075
H          H       0.13652   0.10120   0.23926
H          H       0.86348   0.10120   0.26075
H          H       0.36348   0.39880   0.26075
H          H       0.63652   0.39880   0.23926
H          H       0.86348   0.89880   0.26075
H          H       0.13652   0.89880   0.23926
H          H       0.59020   0.56136   0.27415
H          H       0.40980   0.56136   0.22585
H          H       0.09020   0.06136   0.27415
H          H       0.90980   0.06136   0.22585
H          H       0.40980   0.43864   0.22585
H          H       0.59020   0.43864   0.27415
H          H       0.90980   0.93864   0.22585
H          H       0.09020   0.93864   0.27415
H          H       0.65917   0.65389   0.18351
H          H       0.34083   0.65389   0.31649
H          H       0.15917   0.15389   0.18351
H          H       0.84083   0.15389   0.31649
H          H       0.34083   0.34611   0.31649
H          H       0.65917   0.34611   0.18351
H          H       0.84083   0.84611   0.31649
H          H       0.15917   0.84611   0.18351
H          H       0.65828   0.77323   0.16003
H          H       0.34172   0.77323   0.33998
H          H       0.15828   0.27323   0.16003
H          H       0.84172   0.27323   0.33998
H          H       0.34172   0.22677   0.33998
H          H       0.65828   0.22677   0.16003
H          H       0.84172   0.72677   0.33998
H          H       0.15828   0.72677   0.16003
H          H       0.71208   0.79598   0.25385
H          H       0.28792   0.79598   0.24615
H          H       0.21208   0.29598   0.25385
H          H       0.78792   0.29598   0.24615
H          H       0.28792   0.20402   0.24615
H          H       0.71208   0.20402   0.25385
H          H       0.78792   0.70402   0.24615
H          H       0.21208   0.70402   0.25385
H          H       0.70320   0.67033   0.05623
H          H       0.29680   0.67033   0.44377
H          H       0.20320   0.17033   0.05623
H          H       0.79680   0.17033   0.44377
H          H       0.29680   0.32967   0.44377
H          H       0.70320   0.32967   0.05623
H          H       0.79680   0.82967   0.44377
H          H       0.20320   0.82967   0.05623
C          C       0.50000   0.59454   0.25000
C          C       0.00000   0.09454   0.25000
C          C       0.50000   0.40546   0.25000
C          C       0.00000   0.90546   0.25000
C          C       0.50000   0.51932   0.25000
C          C       0.00000   0.01932   0.25000
C          C       0.50000   0.48068   0.25000
C          C       0.00000   0.98068   0.25000
H          H       0.50000   0.62384   0.25000
H          H       0.00000   0.12384   0.25000
H          H       0.50000   0.37616   0.25000
H          H       0.00000   0.87616   0.25000
C          C       0.52814   0.57682   0.69477
C          C       0.47186   0.57682   0.80524
C          C       0.02814   0.07682   0.69477
C          C       0.97186   0.07682   0.80524
C          C       0.47186   0.42318   0.80524
C          C       0.52814   0.42318   0.69477
C          C       0.97186   0.92318   0.80524
C          C       0.02814   0.92318   0.69477
C          C       0.52772   0.53855   0.68416
C          C       0.47228   0.53855   0.81585
C          C       0.02772   0.03855   0.68416
C          C       0.97228   0.03855   0.81585
C          C       0.47228   0.46145   0.81585
C          C       0.52772   0.46145   0.68416
C          C       0.97228   0.96145   0.81585
C          C       0.02772   0.96145   0.68416
C          C       0.55336   0.51837   0.60146
C          C       0.44664   0.51837   0.89854
C          C       0.05336   0.01837   0.60146
C          C       0.94664   0.01837   0.89854
C          C       0.44664   0.48163   0.89854
C          C       0.55336   0.48163   0.60146
C          C       0.94664   0.98163   0.89854
C          C       0.05336   0.98163   0.60146
C          C       0.55683   0.59884   0.65628
C          C       0.44317   0.59884   0.84372
C          C       0.05683   0.09884   0.65628
C          C       0.94317   0.09884   0.84372
C          C       0.44317   0.40116   0.84372
C          C       0.55683   0.40116   0.65628
C          C       0.94317   0.90116   0.84372
C          C       0.05683   0.90116   0.65628
C          C       0.55433   0.63367   0.57984
C          C       0.44567   0.63367   0.92016
C          C       0.05433   0.13367   0.57984
C          C       0.94567   0.13367   0.92016
C          C       0.44567   0.36633   0.92016
C          C       0.55433   0.36633   0.57984
C          C       0.94567   0.86633   0.92016
C          C       0.05433   0.86633   0.57984
C          C       0.58032   0.65660   0.56224
C          C       0.41968   0.65660   0.93776
C          C       0.08032   0.15660   0.56224
C          C       0.91968   0.15660   0.93776
C          C       0.41968   0.34340   0.93776
C          C       0.58032   0.34340   0.56224
C          C       0.91968   0.84340   0.93776
C          C       0.08032   0.84340   0.56224
C          C       0.61062   0.64545   0.62006
C          C       0.38938   0.64545   0.87995
C          C       0.11062   0.14545   0.62006
C          C       0.88938   0.14545   0.87995
C          C       0.38938   0.35455   0.87995
C          C       0.61062   0.35455   0.62006
C          C       0.88938   0.85455   0.87995
C          C       0.11062   0.85455   0.62006
C          C       0.61340   0.61023   0.69133
C          C       0.38660   0.61023   0.80867
C          C       0.11340   0.11023   0.69133
C          C       0.88660   0.11023   0.80867
C          C       0.38660   0.38977   0.80867
C          C       0.61340   0.38977   0.69133
C          C       0.88660   0.88977   0.80867
C          C       0.11340   0.88977   0.69133
C          C       0.58729   0.58753   0.70927
C          C       0.41271   0.58753   0.79074
C          C       0.08729   0.08753   0.70927
C          C       0.91271   0.08753   0.79074
C          C       0.41271   0.41247   0.79074
C          C       0.58729   0.41247   0.70927
C          C       0.91271   0.91247   0.79074
C          C       0.08729   0.91247   0.70927
C          C       0.63892   0.66750   0.62262
C          C       0.36108   0.66750   0.87739
C          C       0.13892   0.16750   0.62262
C          C       0.86108   0.16750   0.87739
C          C       0.36108   0.33250   0.87739
C          C       0.63892   0.33250   0.62262
C          C       0.86108   0.83250   0.87739
C          C       0.13892   0.83250   0.62262
C          C       0.64460   0.70275   0.57675
C          C       0.35540   0.70275   0.92326
C          C       0.14460   0.20275   0.57675
C          C       0.85540   0.20275   0.92326
C          C       0.35540   0.29725   0.92326
C          C       0.64460   0.29725   0.57675
C          C       0.85540   0.79725   0.92326
C          C       0.14460   0.79725   0.57675
C          C       0.67582   0.71903   0.61215
C          C       0.32418   0.71903   0.88786
C          C       0.17582   0.21903   0.61215
C          C       0.82418   0.21903   0.88786
C          C       0.32418   0.28097   0.88786
C          C       0.67582   0.28097   0.61215
C          C       0.82418   0.78097   0.88786
C          C       0.17582   0.78097   0.61215
C          C       0.67903   0.75551   0.65966
C          C       0.32097   0.75551   0.84035
C          C       0.17903   0.25551   0.65966
C          C       0.82097   0.25551   0.84035
C          C       0.32097   0.24449   0.84035
C          C       0.67903   0.24449   0.65966
C          C       0.82097   0.74449   0.84035
C          C       0.17903   0.74449   0.65966
C          C       0.70850   0.76813   0.71280
C          C       0.29150   0.76813   0.78721
C          C       0.20850   0.26813   0.71280
C          C       0.79150   0.26813   0.78721
C          C       0.29150   0.23187   0.78721
C          C       0.70850   0.23187   0.71280
C          C       0.79150   0.73187   0.78721
C          C       0.20850   0.73187   0.71280
C          C       0.73436   0.74414   0.71734
C          C       0.26564   0.74414   0.78267
C          C       0.23436   0.24414   0.71734
C          C       0.76564   0.24414   0.78267
C          C       0.26564   0.25586   0.78267
C          C       0.73436   0.25586   0.71734
C          C       0.76564   0.75586   0.78267
C          C       0.23436   0.75586   0.71734
N          N       0.73206   0.70966   0.66040
N          N       0.26794   0.70966   0.83961
N          N       0.23206   0.20966   0.66040
N          N       0.76794   0.20966   0.83961
N          N       0.26794   0.29034   0.83961
N          N       0.73206   0.29034   0.66040
N          N       0.76794   0.79034   0.83961
N          N       0.23206   0.79034   0.66040
C          C       0.70380   0.69801   0.60794
C          C       0.29620   0.69801   0.89206
C          C       0.20380   0.19801   0.60794
C          C       0.79620   0.19801   0.89206
C          C       0.29620   0.30199   0.89206
C          C       0.70380   0.30199   0.60794
C          C       0.79620   0.80199   0.89206
C          C       0.20380   0.80199   0.60794
C          C       0.62100   0.72605   0.50445
C          C       0.37900   0.72605   0.99556
C          C       0.12100   0.22605   0.50445
C          C       0.87900   0.22605   0.99556
C          C       0.37900   0.27395   0.99556
C          C       0.62100   0.27395   0.50445
C          C       0.87900   0.77395   0.99556
C          C       0.12100   0.77395   0.50445
N          N       0.60278   0.74635   0.94246
N          N       0.39722   0.74635   0.55754
N          N       0.10278   0.24635   0.94246
N          N       0.89722   0.24635   0.55754
N          N       0.39722   0.25365   0.55754
N          N       0.60278   0.25365   0.94246
N          N       0.89722   0.75365   0.55754
N          N       0.10278   0.75365   0.94246
H          H       0.57298   0.53268   0.53223
H          H       0.42702   0.53268   0.96777
H          H       0.07298   0.03268   0.53223
H          H       0.92702   0.03268   0.96777
H          H       0.42702   0.46732   0.96777
H          H       0.57298   0.46732   0.53223
H          H       0.92702   0.96732   0.96777
H          H       0.07298   0.96732   0.53223
H          H       0.53134   0.64300   0.53218
H          H       0.46866   0.64300   0.96783
H          H       0.03134   0.14300   0.53218
H          H       0.96866   0.14300   0.96783
H          H       0.46866   0.35700   0.96783
H          H       0.53134   0.35700   0.53218
H          H       0.96866   0.85700   0.96783
H          H       0.03134   0.85700   0.53218
H          H       0.57705   0.68330   0.50394
H          H       0.42295   0.68330   0.99606
H          H       0.07705   0.18330   0.50394
H          H       0.92295   0.18330   0.99606
H          H       0.42295   0.31670   0.99606
H          H       0.57705   0.31670   0.50394
H          H       0.92295   0.81670   0.99606
H          H       0.07705   0.81670   0.50394
H          H       0.63652   0.60120   0.73925
H          H       0.36348   0.60120   0.76075
H          H       0.13652   0.10120   0.73925
H          H       0.86348   0.10120   0.76075
H          H       0.36348   0.39880   0.76075
H          H       0.63652   0.39880   0.73925
H          H       0.86348   0.89880   0.76075
H          H       0.13652   0.89880   0.73925
H          H       0.59020   0.56136   0.77416
H          H       0.40980   0.56136   0.72585
H          H       0.09020   0.06136   0.77416
H          H       0.90980   0.06136   0.72585
H          H       0.40980   0.43864   0.72585
H          H       0.59020   0.43864   0.77416
H          H       0.90980   0.93864   0.72585
H          H       0.09020   0.93864   0.77416
H          H       0.65917   0.65389   0.68351
H          H       0.34083   0.65389   0.81650
H          H       0.15917   0.15389   0.68351
H          H       0.84083   0.15389   0.81650
H          H       0.34083   0.34611   0.81650
H          H       0.65917   0.34611   0.68351
H          H       0.84083   0.84611   0.81650
H          H       0.15917   0.84611   0.68351
H          H       0.65828   0.77323   0.66002
H          H       0.34172   0.77323   0.83998
H          H       0.15828   0.27323   0.66002
H          H       0.84172   0.27323   0.83998
H          H       0.34172   0.22677   0.83998
H          H       0.65828   0.22677   0.66002
H          H       0.84172   0.72677   0.83998
H          H       0.15828   0.72677   0.66002
H          H       0.71208   0.79598   0.75385
H          H       0.28792   0.79598   0.74615
H          H       0.21208   0.29598   0.75385
H          H       0.78792   0.29598   0.74615
H          H       0.28792   0.20402   0.74615
H          H       0.71208   0.20402   0.75385
H          H       0.78792   0.70402   0.74615
H          H       0.21208   0.70402   0.75385
H          H       0.70320   0.67033   0.55623
H          H       0.29680   0.67033   0.94377
H          H       0.20320   0.17033   0.55623
H          H       0.79680   0.17033   0.94377
H          H       0.29680   0.32967   0.94377
H          H       0.70320   0.32967   0.55623
H          H       0.79680   0.82967   0.94377
H          H       0.20320   0.82967   0.55623
C          C       0.50000   0.59454   0.75000
C          C       0.00000   0.09454   0.75000
C          C       0.50000   0.40546   0.75000
C          C       0.00000   0.90546   0.75000
C          C       0.50000   0.51932   0.75000
C          C       0.00000   0.01932   0.75000
C          C       0.50000   0.48068   0.75000
C          C       0.00000   0.98068   0.75000
H          H       0.50000   0.62384   0.75000
H          H       0.00000   0.12384   0.75000
H          H       0.50000   0.37616   0.75000
H          H       0.00000   0.87616   0.75000
