data_crystal
 
_cell_length_a    37.30480
_cell_length_b    37.30480
_cell_length_c    7.08840
_cell_angle_alpha 90.00000
_cell_angle_beta  90.00000
_cell_angle_gamma 120.00000
 
_space_group_name_Hall 'P 1'
_space_group_name_H-M_alt  'P 1'
 
loop_
_symmetry_equiv_pos_as_xyz
 'x,y,z' 
 
loop_
_atom_site_label
_atom_site_type_symbol
_atom_site_fract_x
_atom_site_fract_y
_atom_site_fract_z
C          C       0.35391   0.64465   0.00000 
C          C       0.35535   0.70926   0.00000 
C          C       0.29074   0.64609   0.00000 
C          C       0.64609   0.35535   0.00000 
C          C       0.64465   0.29074   0.00000 
C          C       0.70926   0.35391   0.00000 
N          N       0.37466   0.68663   0.00000 
N          N       0.31337   0.68803   0.00000 
N          N       0.31197   0.62534   0.00000 
N          N       0.62534   0.31337   0.00000 
N          N       0.68663   0.31197   0.00000 
N          N       0.68803   0.37466   0.00000 
C          C       0.24689   0.62492   0.00000 
C          C       0.37508   0.62197   0.00000 
C          C       0.37803   0.75311   0.00000 
C          C       0.75311   0.37508   0.00000 
C          C       0.62492   0.37803   0.00000 
C          C       0.62197   0.24689   0.00000 
C          C       0.22480   0.64674   0.00000 
C          C       0.35326   0.57806   0.00000 
C          C       0.42194   0.77520   0.00000 
C          C       0.77520   0.35326   0.00000 
C          C       0.64674   0.42194   0.00000 
C          C       0.57806   0.22480   0.00000 
C          C       0.18123   0.62565   0.00000 
C          C       0.37435   0.55558   0.00000 
C          C       0.44442   0.81877   0.00000 
C          C       0.81877   0.37435   0.00000 
C          C       0.62565   0.44442   0.00000 
C          C       0.55558   0.18123   0.00000 
C          C       0.15822   0.58213   0.00000 
C          C       0.41787   0.57609   0.00000 
C          C       0.42391   0.84178   0.00000 
C          C       0.84178   0.41787   0.00000 
C          C       0.58213   0.42391   0.00000 
C          C       0.57609   0.15822   0.00000 
C          C       0.17973   0.55994   0.00000 
C          C       0.44006   0.61979   0.00000 
C          C       0.38021   0.82027   0.00000 
C          C       0.82027   0.44006   0.00000 
C          C       0.55994   0.38021   0.00000 
C          C       0.61979   0.17973   0.00000 
C          C       0.22330   0.58104   0.00000 
C          C       0.41896   0.64226   0.00000 
C          C       0.35774   0.77670   0.00000 
C          C       0.77670   0.41896   0.00000 
C          C       0.58104   0.35774   0.00000 
C          C       0.64226   0.22330   0.00000 
N          N       0.11656   0.56485   0.00000 
N          N       0.43515   0.55171   0.00000 
N          N       0.44829   0.88344   0.00000 
N          N       0.88344   0.43515   0.00000 
N          N       0.56485   0.44829   0.00000 
N          N       0.55171   0.11656   0.00000 
C          C       0.08566   0.52503   0.00000 
C          C       0.47497   0.56063   0.00000 
C          C       0.43937   0.91434   0.00000 
C          C       0.91434   0.47497   0.00000 
C          C       0.52503   0.43937   0.00000 
C          C       0.56063   0.08566   0.00000 
C          C       0.04341   0.51360   0.00000 
C          C       0.48640   0.52981   0.00000 
C          C       0.47019   0.95659   0.00000 
C          C       0.95659   0.48640   0.00000 
C          C       0.51360   0.47019   0.00000 
C          C       0.52981   0.04341   0.00000 
C          C       0.02932   0.54262   0.00000 
C          C       0.45738   0.48670   0.00000 
C          C       0.51330   0.97068   0.00000 
C          C       0.97068   0.45738   0.00000 
C          C       0.54262   0.51330   0.00000 
C          C       0.48670   0.02932   0.00000 
C          C       0.98673   0.52908   0.00000 
C          C       0.47092   0.45765   0.00000 
C          C       0.54235   0.01327   0.00000 
C          C       0.01327   0.47092   0.00000 
C          C       0.52908   0.54235   0.00000 
C          C       0.45765   0.98673   0.00000 
O          O       0.05500   0.58409   0.00000 
O          O       0.41591   0.47091   0.00000 
O          O       0.52909   0.94500   0.00000 
O          O       0.94500   0.41591   0.00000 
O          O       0.58409   0.52909   0.00000 
O          O       0.47091   0.05500   0.00000 
H          H       0.24027   0.67841   0.00000 
H          H       0.32159   0.56186   0.00000 
H          H       0.43814   0.75973   0.00000 
H          H       0.75973   0.32159   0.00000 
H          H       0.67841   0.43814   0.00000 
H          H       0.56186   0.24027   0.00000 
H          H       0.16606   0.64217   0.00000 
H          H       0.35783   0.52389   0.00000 
H          H       0.47611   0.83394   0.00000 
H          H       0.83394   0.35783   0.00000 
H          H       0.64217   0.47611   0.00000 
H          H       0.52389   0.16606   0.00000 
H          H       0.16402   0.52838   0.00000 
H          H       0.47162   0.63564   0.00000 
H          H       0.36436   0.83598   0.00000 
H          H       0.83598   0.47162   0.00000 
H          H       0.52838   0.36436   0.00000 
H          H       0.63564   0.16402   0.00000 
H          H       0.23773   0.56383   0.00000 
H          H       0.43617   0.67390   0.00000 
H          H       0.32610   0.76227   0.00000 
H          H       0.76227   0.43617   0.00000 
H          H       0.56383   0.32610   0.00000 
H          H       0.67390   0.23773   0.00000 
H          H       0.09322   0.50221   0.00000 
H          H       0.49779   0.59101   0.00000 
H          H       0.40899   0.90678   0.00000 
H          H       0.90678   0.49779   0.00000 
H          H       0.50221   0.40899   0.00000 
H          H       0.59101   0.09322   0.00000 
H          H       0.97790   0.55099   0.00000 
H          H       0.44901   0.42691   0.00000 
H          H       0.57309   0.02210   0.00000 
H          H       0.02210   0.44901   0.00000 
H          H       0.55099   0.57309   0.00000 
H          H       0.42691   0.97790   0.00000 
H          H       0.95605   0.39708   0.00000 
H          H       0.60292   0.55897   0.00000 
H          H       0.44103   0.04395   0.00000 
H          H       0.04395   0.60292   0.00000 
H          H       0.39708   0.44103   0.00000 
H          H       0.55897   0.95605   0.00000 
C          C       0.35391   0.64465   0.50000 
C          C       0.35535   0.70926   0.50000 
C          C       0.29074   0.64609   0.50000 
C          C       0.64609   0.35535   0.50000 
C          C       0.64465   0.29074   0.50000 
C          C       0.70926   0.35391   0.50000 
N          N       0.37466   0.68663   0.50000 
N          N       0.31337   0.68803   0.50000 
N          N       0.31197   0.62534   0.50000 
N          N       0.62534   0.31337   0.50000 
N          N       0.68663   0.31197   0.50000 
N          N       0.68803   0.37466   0.50000 
C          C       0.24689   0.62492   0.50000 
C          C       0.37508   0.62197   0.50000 
C          C       0.37803   0.75311   0.50000 
C          C       0.75311   0.37508   0.50000 
C          C       0.62492   0.37803   0.50000 
C          C       0.62197   0.24689   0.50000 
C          C       0.22480   0.64674   0.50000 
C          C       0.35326   0.57806   0.50000 
C          C       0.42194   0.77520   0.50000 
C          C       0.77520   0.35326   0.50000 
C          C       0.64674   0.42194   0.50000 
C          C       0.57806   0.22480   0.50000 
C          C       0.18123   0.62565   0.50000 
C          C       0.37435   0.55558   0.50000 
C          C       0.44442   0.81877   0.50000 
C          C       0.81877   0.37435   0.50000 
C          C       0.62565   0.44442   0.50000 
C          C       0.55558   0.18123   0.50000 
C          C       0.15822   0.58213   0.50000 
C          C       0.41787   0.57609   0.50000 
C          C       0.42391   0.84178   0.50000 
C          C       0.84178   0.41787   0.50000 
C          C       0.58213   0.42391   0.50000 
C          C       0.57609   0.15822   0.50000 
C          C       0.17973   0.55994   0.50000 
C          C       0.44006   0.61979   0.50000 
C          C       0.38021   0.82027   0.50000 
C          C       0.82027   0.44006   0.50000 
C          C       0.55994   0.38021   0.50000 
C          C       0.61979   0.17973   0.50000 
C          C       0.22330   0.58104   0.50000 
C          C       0.41896   0.64226   0.50000 
C          C       0.35774   0.77670   0.50000 
C          C       0.77670   0.41896   0.50000 
C          C       0.58104   0.35774   0.50000 
C          C       0.64226   0.22330   0.50000 
N          N       0.11656   0.56485   0.50000 
N          N       0.43515   0.55171   0.50000 
N          N       0.44829   0.88344   0.50000 
N          N       0.88344   0.43515   0.50000 
N          N       0.56485   0.44829   0.50000 
N          N       0.55171   0.11656   0.50000 
C          C       0.08566   0.52503   0.50000 
C          C       0.47497   0.56063   0.50000 
C          C       0.43937   0.91434   0.50000 
C          C       0.91434   0.47497   0.50000 
C          C       0.52503   0.43937   0.50000 
C          C       0.56063   0.08566   0.50000 
C          C       0.04341   0.51360   0.50000 
C          C       0.48640   0.52981   0.50000 
C          C       0.47019   0.95659   0.50000 
C          C       0.95659   0.48640   0.50000 
C          C       0.51360   0.47019   0.50000 
C          C       0.52981   0.04341   0.50000 
C          C       0.02932   0.54262   0.50000 
C          C       0.45738   0.48670   0.50000 
C          C       0.51330   0.97068   0.50000 
C          C       0.97068   0.45738   0.50000 
C          C       0.54262   0.51330   0.50000 
C          C       0.48670   0.02932   0.50000 
C          C       0.98673   0.52908   0.50000 
C          C       0.47092   0.45765   0.50000 
C          C       0.54235   0.01327   0.50000 
C          C       0.01327   0.47092   0.50000 
C          C       0.52908   0.54235   0.50000 
C          C       0.45765   0.98673   0.50000 
O          O       0.05500   0.58409   0.50000 
O          O       0.41591   0.47091   0.50000 
O          O       0.52909   0.94500   0.50000 
O          O       0.94500   0.41591   0.50000 
O          O       0.58409   0.52909   0.50000 
O          O       0.47091   0.05500   0.50000 
H          H       0.24027   0.67841   0.50000 
H          H       0.32159   0.56186   0.50000 
H          H       0.43814   0.75973   0.50000 
H          H       0.75973   0.32159   0.50000 
H          H       0.67841   0.43814   0.50000 
H          H       0.56186   0.24027   0.50000 
H          H       0.16606   0.64217   0.50000 
H          H       0.35783   0.52389   0.50000 
H          H       0.47611   0.83394   0.50000 
H          H       0.83394   0.35783   0.50000 
H          H       0.64217   0.47611   0.50000 
H          H       0.52389   0.16606   0.50000 
H          H       0.16402   0.52838   0.50000 
H          H       0.47162   0.63564   0.50000 
H          H       0.36436   0.83598   0.50000 
H          H       0.83598   0.47162   0.50000 
H          H       0.52838   0.36436   0.50000 
H          H       0.63564   0.16402   0.50000 
H          H       0.23773   0.56383   0.50000 
H          H       0.43617   0.67390   0.50000 
H          H       0.32610   0.76227   0.50000 
H          H       0.76227   0.43617   0.50000 
H          H       0.56383   0.32610   0.50000 
H          H       0.67390   0.23773   0.50000 
H          H       0.09322   0.50221   0.50000 
H          H       0.49779   0.59101   0.50000 
H          H       0.40899   0.90678   0.50000 
H          H       0.90678   0.49779   0.50000 
H          H       0.50221   0.40899   0.50000 
H          H       0.59101   0.09322   0.50000 
H          H       0.97790   0.55099   0.50000 
H          H       0.44901   0.42691   0.50000 
H          H       0.57309   0.02210   0.50000 
H          H       0.02210   0.44901   0.50000 
H          H       0.55099   0.57309   0.50000 
H          H       0.42691   0.97790   0.50000 
H          H       0.95605   0.39708   0.50000 
H          H       0.60292   0.55897   0.50000 
H          H       0.44103   0.04395   0.50000 
H          H       0.04395   0.60292   0.50000 
H          H       0.39708   0.44103   0.50000 
H          H       0.55897   0.95605   0.50000 
