data_crystal
 
_cell_length_a    18.78820
_cell_length_b    18.78820
_cell_length_c    50.00000
_cell_angle_alpha 90.00000
_cell_angle_beta  90.00000
_cell_angle_gamma 90.00000
 
_symmetry_space_group_name_Hall 'P 1'
_symmetry_space_group_name_H-M  'P 1'
 
loop_
_symmetry_equiv_pos_as_xyz
 'x,y,z' 
 
loop_
_atom_site_label
_atom_site_type_symbol
_atom_site_fract_x
_atom_site_fract_y
_atom_site_fract_z
H          H       0.25580   0.31137   0.25000 
H          H       0.74420   0.68863   0.25000 
H          H       0.68863   0.25580   0.25000 
H          H       0.31137   0.74420   0.25000 
H          H       0.24420   0.81137   0.25000 
H          H       0.75580   0.18863   0.25000 
H          H       0.81137   0.75580   0.25000 
H          H       0.18863   0.24420   0.25000 
H          H       0.19143   0.56964   0.25000 
H          H       0.80857   0.43036   0.25000 
H          H       0.43036   0.19143   0.25000 
H          H       0.56964   0.80857   0.25000 
H          H       0.30857   0.06964   0.25000 
H          H       0.69143   0.93036   0.25000 
H          H       0.06964   0.69143   0.25000 
H          H       0.93036   0.30857   0.25000 
H          H       0.09259   0.59259   0.25000 
H          H       0.90740   0.40741   0.25000 
H          H       0.40741   0.09259   0.25000 
H          H       0.59259   0.90740   0.25000 
C          C       0.14876   0.46114   0.25000 
C          C       0.85124   0.53886   0.25000 
C          C       0.53886   0.14876   0.25000 
C          C       0.46114   0.85124   0.25000 
C          C       0.35124   0.96114   0.25000 
C          C       0.64876   0.03886   0.25000 
C          C       0.96114   0.64876   0.25000 
C          C       0.03886   0.35124   0.25000 
C          C       0.20345   0.51266   0.25000 
C          C       0.79655   0.48734   0.25000 
C          C       0.48734   0.20345   0.25000 
C          C       0.51266   0.79655   0.25000 
C          C       0.29655   0.01266   0.25000 
C          C       0.70345   0.98734   0.25000 
C          C       0.01266   0.70345   0.25000 
C          C       0.98734   0.29655   0.25000 
C          C       0.83273   0.61263   0.25000 
C          C       0.16727   0.38737   0.25000 
C          C       0.38737   0.83273   0.25000 
C          C       0.61263   0.16727   0.25000 
C          C       0.66727   0.11263   0.25000 
C          C       0.33273   0.88737   0.25000 
C          C       0.11263   0.33273   0.25000 
C          C       0.88737   0.66727   0.25000 
C          C       0.63299   0.23906   0.25000 
C          C       0.36701   0.76094   0.25000 
C          C       0.76094   0.63299   0.25000 
C          C       0.23906   0.36701   0.25000 
C          C       0.86701   0.73906   0.25000 
C          C       0.13299   0.26094   0.25000 
C          C       0.73906   0.13299   0.25000 
C          C       0.26094   0.86701   0.25000 
C          C       0.07338   0.48040   0.25000 
C          C       0.92662   0.51960   0.25000 
C          C       0.51960   0.07338   0.25000 
C          C       0.48040   0.92662   0.25000 
C          C       0.42662   0.98040   0.25000 
C          C       0.57338   0.01960   0.25000 
C          C       0.98040   0.57338   0.25000 
C          C       0.01960   0.42662   0.25000 
C          C       0.05147   0.55147   0.25000 
C          C       0.94853   0.44853   0.25000 
C          C       0.44853   0.05147   0.25000 
C          C       0.55147   0.94853   0.25000 
C          C       0.52855   0.65804   0.25000 
C          C       0.47145   0.34196   0.25000 
C          C       0.34196   0.52855   0.25000 
C          C       0.65804   0.47145   0.25000 
C          C       0.97145   0.15804   0.25000 
C          C       0.02855   0.84196   0.25000 
C          C       0.15804   0.02855   0.25000 
C          C       0.84196   0.97145   0.25000 
C          C       0.70898   0.58181   0.25000 
C          C       0.29102   0.41819   0.25000 
C          C       0.41819   0.70898   0.25000 
C          C       0.58181   0.29102   0.25000 
C          C       0.79102   0.08181   0.25000 
C          C       0.20898   0.91819   0.25000 
C          C       0.08181   0.20898   0.25000 
C          C       0.91819   0.79102   0.25000 
C          C       0.41176   0.63238   0.25000 
C          C       0.58824   0.36762   0.25000 
C          C       0.36762   0.41176   0.25000 
C          C       0.63238   0.58824   0.25000 
C          C       0.08824   0.13238   0.25000 
C          C       0.91176   0.86762   0.25000 
C          C       0.13238   0.91176   0.25000 
C          C       0.86762   0.08824   0.25000 
C          C       0.27400   0.49126   0.25000 
C          C       0.72600   0.50874   0.25000 
C          C       0.50874   0.27400   0.25000 
C          C       0.49126   0.72600   0.25000 
C          C       0.22600   0.99126   0.25000 
C          C       0.77400   0.00874   0.25000 
C          C       0.99126   0.77400   0.25000 
C          C       0.00874   0.22600   0.25000 
N          N       0.59892   0.65077   0.25000 
N          N       0.40108   0.34923   0.25000 
N          N       0.34923   0.59892   0.25000 
N          N       0.65077   0.40108   0.25000 
N          N       0.90108   0.15077   0.25000 
N          N       0.09892   0.84923   0.25000 
N          N       0.15077   0.09892   0.25000 
N          N       0.84923   0.90108   0.25000 
N          N       0.47906   0.60368   0.25000 
N          N       0.52094   0.39632   0.25000 
N          N       0.39632   0.47906   0.25000 
N          N       0.60368   0.52094   0.25000 
N          N       0.02094   0.10368   0.25000 
N          N       0.97905   0.89632   0.25000 
N          N       0.10368   0.97905   0.25000 
N          N       0.89632   0.02094   0.25000 
Zn         Zn      0.50000   0.50000   0.25000 
Zn         Zn      0.00000   0.00000   0.25000 
H          H       0.25580   0.31137   0.75000 
H          H       0.74420   0.68863   0.75000 
H          H       0.68863   0.25580   0.75000 
H          H       0.31137   0.74420   0.75000 
H          H       0.24420   0.81137   0.75000 
H          H       0.75580   0.18863   0.75000 
H          H       0.81137   0.75580   0.75000 
H          H       0.18863   0.24420   0.75000 
H          H       0.19143   0.56964   0.75000 
H          H       0.80857   0.43036   0.75000 
H          H       0.43036   0.19143   0.75000 
H          H       0.56964   0.80857   0.75000 
H          H       0.30857   0.06964   0.75000 
H          H       0.69143   0.93036   0.75000 
H          H       0.06964   0.69143   0.75000 
H          H       0.93036   0.30857   0.75000 
H          H       0.09259   0.59259   0.75000 
H          H       0.90740   0.40741   0.75000 
H          H       0.40741   0.09259   0.75000 
H          H       0.59259   0.90740   0.75000 
C          C       0.14876   0.46114   0.75000 
C          C       0.85124   0.53886   0.75000 
C          C       0.53886   0.14876   0.75000 
C          C       0.46114   0.85124   0.75000 
C          C       0.35124   0.96114   0.75000 
C          C       0.64876   0.03886   0.75000 
C          C       0.96114   0.64876   0.75000 
C          C       0.03886   0.35124   0.75000 
C          C       0.20345   0.51266   0.75000 
C          C       0.79655   0.48734   0.75000 
C          C       0.48734   0.20345   0.75000 
C          C       0.51266   0.79655   0.75000 
C          C       0.29655   0.01266   0.75000 
C          C       0.70345   0.98734   0.75000 
C          C       0.01266   0.70345   0.75000 
C          C       0.98734   0.29655   0.75000 
C          C       0.83273   0.61263   0.75000 
C          C       0.16727   0.38737   0.75000 
C          C       0.38737   0.83273   0.75000 
C          C       0.61263   0.16727   0.75000 
C          C       0.66727   0.11263   0.75000 
C          C       0.33273   0.88737   0.75000 
C          C       0.11263   0.33273   0.75000 
C          C       0.88737   0.66727   0.75000 
C          C       0.63299   0.23906   0.75000 
C          C       0.36701   0.76094   0.75000 
C          C       0.76094   0.63299   0.75000 
C          C       0.23906   0.36701   0.75000 
C          C       0.86701   0.73906   0.75000 
C          C       0.13299   0.26094   0.75000 
C          C       0.73906   0.13299   0.75000 
C          C       0.26094   0.86701   0.75000 
C          C       0.07338   0.48040   0.75000 
C          C       0.92662   0.51960   0.75000 
C          C       0.51960   0.07338   0.75000 
C          C       0.48040   0.92662   0.75000 
C          C       0.42662   0.98040   0.75000 
C          C       0.57338   0.01960   0.75000 
C          C       0.98040   0.57338   0.75000 
C          C       0.01960   0.42662   0.75000 
C          C       0.05147   0.55147   0.75000 
C          C       0.94853   0.44853   0.75000 
C          C       0.44853   0.05147   0.75000 
C          C       0.55147   0.94853   0.75000 
C          C       0.52855   0.65804   0.75000 
C          C       0.47145   0.34196   0.75000 
C          C       0.34196   0.52855   0.75000 
C          C       0.65804   0.47145   0.75000 
C          C       0.97145   0.15804   0.75000 
C          C       0.02855   0.84196   0.75000 
C          C       0.15804   0.02855   0.75000 
C          C       0.84196   0.97145   0.75000 
C          C       0.70898   0.58181   0.75000 
C          C       0.29102   0.41819   0.75000 
C          C       0.41819   0.70898   0.75000 
C          C       0.58181   0.29102   0.75000 
C          C       0.79102   0.08181   0.75000 
C          C       0.20898   0.91819   0.75000 
C          C       0.08181   0.20898   0.75000 
C          C       0.91819   0.79102   0.75000 
C          C       0.41176   0.63238   0.75000 
C          C       0.58824   0.36762   0.75000 
C          C       0.36762   0.41176   0.75000 
C          C       0.63238   0.58824   0.75000 
C          C       0.08824   0.13238   0.75000 
C          C       0.91176   0.86762   0.75000 
C          C       0.13238   0.91176   0.75000 
C          C       0.86762   0.08824   0.75000 
C          C       0.27400   0.49126   0.75000 
C          C       0.72600   0.50874   0.75000 
C          C       0.50874   0.27400   0.75000 
C          C       0.49126   0.72600   0.75000 
C          C       0.22600   0.99126   0.75000 
C          C       0.77400   0.00874   0.75000 
C          C       0.99126   0.77400   0.75000 
C          C       0.00874   0.22600   0.75000 
N          N       0.59892   0.65077   0.75000 
N          N       0.40108   0.34923   0.75000 
N          N       0.34923   0.59892   0.75000 
N          N       0.65077   0.40108   0.75000 
N          N       0.90108   0.15077   0.75000 
N          N       0.09892   0.84923   0.75000 
N          N       0.15077   0.09892   0.75000 
N          N       0.84923   0.90108   0.75000 
N          N       0.47906   0.60368   0.75000 
N          N       0.52094   0.39632   0.75000 
N          N       0.39632   0.47906   0.75000 
N          N       0.60368   0.52094   0.75000 
N          N       0.02094   0.10368   0.75000 
N          N       0.97905   0.89632   0.75000 
N          N       0.10368   0.97905   0.75000 
N          N       0.89632   0.02094   0.75000 
Zn         Zn      0.50000   0.50000   0.75000 
Zn         Zn      0.00000   0.00000   0.75000 
