data_crystal
 
_cell_length_a    18.75680
_cell_length_b    18.75680
_cell_length_c    50.00000
_cell_angle_alpha 90.00000
_cell_angle_beta  90.00000
_cell_angle_gamma 90.00000
 
_symmetry_space_group_name_Hall 'P 1'
_symmetry_space_group_name_H-M  'P 1'
 
loop_
_symmetry_equiv_pos_as_xyz
 'x,y,z' 
 
loop_
_atom_site_label
_atom_site_type_symbol
_atom_site_fract_x
_atom_site_fract_y
_atom_site_fract_z
H          H       0.12895   0.72154   0.25000 
H          H       0.87105   0.27846   0.25000 
H          H       0.27846   0.12895   0.25000 
H          H       0.72154   0.87105   0.25000 
H          H       0.37105   0.22154   0.25000 
H          H       0.62895   0.77846   0.25000 
H          H       0.22154   0.62895   0.25000 
H          H       0.77846   0.37105   0.25000 
H          H       0.25622   0.31349   0.25000 
H          H       0.74378   0.68651   0.25000 
H          H       0.68651   0.25622   0.25000 
H          H       0.31349   0.74378   0.25000 
H          H       0.24378   0.81349   0.25000 
H          H       0.75622   0.18651   0.25000 
H          H       0.81349   0.75622   0.25000 
H          H       0.18651   0.24378   0.25000 
C          C       0.53057   0.65861   0.25000 
C          C       0.46943   0.34139   0.25000 
C          C       0.34139   0.53057   0.25000 
C          C       0.65861   0.46943   0.25000 
C          C       0.96943   0.15861   0.25000 
C          C       0.03057   0.84139   0.25000 
C          C       0.15861   0.03057   0.25000 
C          C       0.84139   0.96943   0.25000 
C          C       0.71017   0.57865   0.25000 
C          C       0.28983   0.42135   0.25000 
C          C       0.42135   0.71017   0.25000 
C          C       0.57865   0.28983   0.25000 
C          C       0.78983   0.07865   0.25000 
C          C       0.21017   0.92135   0.25000 
C          C       0.07865   0.21017   0.25000 
C          C       0.92135   0.78983   0.25000 
C          C       0.41379   0.63318   0.25000 
C          C       0.58621   0.36682   0.25000 
C          C       0.36682   0.41379   0.25000 
C          C       0.63318   0.58621   0.25000 
C          C       0.08621   0.13318   0.25000 
C          C       0.91379   0.86682   0.25000 
C          C       0.13318   0.91379   0.25000 
C          C       0.86682   0.08621   0.25000 
C          C       0.27358   0.49438   0.25000 
C          C       0.72642   0.50562   0.25000 
C          C       0.50562   0.27358   0.25000 
C          C       0.49438   0.72642   0.25000 
C          C       0.22642   0.99438   0.25000 
C          C       0.77358   0.00562   0.25000 
C          C       0.99438   0.77358   0.25000 
C          C       0.00562   0.22642   0.25000 
C          C       0.17995   0.58791   0.25000 
C          C       0.82005   0.41209   0.25000 
C          C       0.41209   0.17995   0.25000 
C          C       0.58791   0.82005   0.25000 
C          C       0.32005   0.08791   0.25000 
C          C       0.67995   0.91209   0.25000 
C          C       0.08791   0.67995   0.25000 
C          C       0.91209   0.32005   0.25000 
C          C       0.14696   0.46155   0.25000 
C          C       0.85304   0.53845   0.25000 
C          C       0.53845   0.14696   0.25000 
C          C       0.46155   0.85304   0.25000 
C          C       0.35304   0.96155   0.25000 
C          C       0.64696   0.03845   0.25000 
C          C       0.96155   0.64696   0.25000 
C          C       0.03845   0.35304   0.25000 
C          C       0.20095   0.51670   0.25000 
C          C       0.79905   0.48330   0.25000 
C          C       0.48330   0.20095   0.25000 
C          C       0.51670   0.79905   0.25000 
C          C       0.29905   0.01670   0.25000 
C          C       0.70095   0.98330   0.25000 
C          C       0.01670   0.70095   0.25000 
C          C       0.98330   0.29905   0.25000 
C          C       0.83361   0.61194   0.25000 
C          C       0.16639   0.38806   0.25000 
C          C       0.38806   0.83361   0.25000 
C          C       0.61194   0.16639   0.25000 
C          C       0.66639   0.11194   0.25000 
C          C       0.33361   0.88806   0.25000 
C          C       0.11194   0.33361   0.25000 
C          C       0.88806   0.66639   0.25000 
C          C       0.63100   0.23854   0.25000 
C          C       0.36900   0.76146   0.25000 
C          C       0.76146   0.63100   0.25000 
C          C       0.23854   0.36900   0.25000 
C          C       0.86900   0.73854   0.25000 
C          C       0.13100   0.26146   0.25000 
C          C       0.73854   0.13100   0.25000 
C          C       0.26146   0.86900   0.25000 
C          C       0.07360   0.48058   0.25000 
C          C       0.92640   0.51942   0.25000 
C          C       0.51942   0.07360   0.25000 
C          C       0.48058   0.92640   0.25000 
C          C       0.42640   0.98058   0.25000 
C          C       0.57360   0.01942   0.25000 
C          C       0.98058   0.57360   0.25000 
C          C       0.01942   0.42640   0.25000 
C          C       0.10777   0.60777   0.25000 
C          C       0.89223   0.39223   0.25000 
C          C       0.39223   0.10777   0.25000 
C          C       0.60777   0.89223   0.25000 
C          C       0.05349   0.55349   0.25000 
C          C       0.94651   0.44651   0.25000 
C          C       0.44651   0.05349   0.25000 
C          C       0.55349   0.94651   0.25000 
N          N       0.60123   0.64964   0.25000 
N          N       0.39877   0.35036   0.25000 
N          N       0.35036   0.60123   0.25000 
N          N       0.64964   0.39877   0.25000 
N          N       0.89877   0.14964   0.25000 
N          N       0.10123   0.85036   0.25000 
N          N       0.14964   0.10123   0.25000 
N          N       0.85036   0.89877   0.25000 
N          N       0.48052   0.60389   0.25000 
N          N       0.51948   0.39611   0.25000 
N          N       0.39611   0.48052   0.25000 
N          N       0.60389   0.51948   0.25000 
N          N       0.01948   0.10389   0.25000 
N          N       0.98052   0.89611   0.25000 
N          N       0.10389   0.98052   0.25000 
N          N       0.89611   0.01948   0.25000 
Zn         Zn      0.00000   0.00000   0.25000 
Zn         Zn      0.50000   0.50000   0.25000 
H          H       0.12895   0.72154   0.75000 
H          H       0.87105   0.27846   0.75000 
H          H       0.27846   0.12895   0.75000 
H          H       0.72154   0.87105   0.75000 
H          H       0.37105   0.22154   0.75000 
H          H       0.62895   0.77846   0.75000 
H          H       0.22154   0.62895   0.75000 
H          H       0.77846   0.37105   0.75000 
H          H       0.25622   0.31349   0.75000 
H          H       0.74378   0.68651   0.75000 
H          H       0.68651   0.25622   0.75000 
H          H       0.31349   0.74378   0.75000 
H          H       0.24378   0.81349   0.75000 
H          H       0.75622   0.18651   0.75000 
H          H       0.81349   0.75622   0.75000 
H          H       0.18651   0.24378   0.75000 
C          C       0.53057   0.65861   0.75000 
C          C       0.46943   0.34139   0.75000 
C          C       0.34139   0.53057   0.75000 
C          C       0.65861   0.46943   0.75000 
C          C       0.96943   0.15861   0.75000 
C          C       0.03057   0.84139   0.75000 
C          C       0.15861   0.03057   0.75000 
C          C       0.84139   0.96943   0.75000 
C          C       0.71017   0.57865   0.75000 
C          C       0.28983   0.42135   0.75000 
C          C       0.42135   0.71017   0.75000 
C          C       0.57865   0.28983   0.75000 
C          C       0.78983   0.07865   0.75000 
C          C       0.21017   0.92135   0.75000 
C          C       0.07865   0.21017   0.75000 
C          C       0.92135   0.78983   0.75000 
C          C       0.41379   0.63318   0.75000 
C          C       0.58621   0.36682   0.75000 
C          C       0.36682   0.41379   0.75000 
C          C       0.63318   0.58621   0.75000 
C          C       0.08621   0.13318   0.75000 
C          C       0.91379   0.86682   0.75000 
C          C       0.13318   0.91379   0.75000 
C          C       0.86682   0.08621   0.75000 
C          C       0.27358   0.49438   0.75000 
C          C       0.72642   0.50562   0.75000 
C          C       0.50562   0.27358   0.75000 
C          C       0.49438   0.72642   0.75000 
C          C       0.22642   0.99438   0.75000 
C          C       0.77358   0.00562   0.75000 
C          C       0.99438   0.77358   0.75000 
C          C       0.00562   0.22642   0.75000 
C          C       0.17995   0.58791   0.75000 
C          C       0.82005   0.41209   0.75000 
C          C       0.41209   0.17995   0.75000 
C          C       0.58791   0.82005   0.75000 
C          C       0.32005   0.08791   0.75000 
C          C       0.67995   0.91209   0.75000 
C          C       0.08791   0.67995   0.75000 
C          C       0.91209   0.32005   0.75000 
C          C       0.14696   0.46155   0.75000 
C          C       0.85304   0.53845   0.75000 
C          C       0.53845   0.14696   0.75000 
C          C       0.46155   0.85304   0.75000 
C          C       0.35304   0.96155   0.75000 
C          C       0.64696   0.03845   0.75000 
C          C       0.96155   0.64696   0.75000 
C          C       0.03845   0.35304   0.75000 
C          C       0.20095   0.51670   0.75000 
C          C       0.79905   0.48330   0.75000 
C          C       0.48330   0.20095   0.75000 
C          C       0.51670   0.79905   0.75000 
C          C       0.29905   0.01670   0.75000 
C          C       0.70095   0.98330   0.75000 
C          C       0.01670   0.70095   0.75000 
C          C       0.98330   0.29905   0.75000 
C          C       0.83361   0.61194   0.75000 
C          C       0.16639   0.38806   0.75000 
C          C       0.38806   0.83361   0.75000 
C          C       0.61194   0.16639   0.75000 
C          C       0.66639   0.11194   0.75000 
C          C       0.33361   0.88806   0.75000 
C          C       0.11194   0.33361   0.75000 
C          C       0.88806   0.66639   0.75000 
C          C       0.63100   0.23854   0.75000 
C          C       0.36900   0.76146   0.75000 
C          C       0.76146   0.63100   0.75000 
C          C       0.23854   0.36900   0.75000 
C          C       0.86900   0.73854   0.75000 
C          C       0.13100   0.26146   0.75000 
C          C       0.73854   0.13100   0.75000 
C          C       0.26146   0.86900   0.75000 
C          C       0.07360   0.48058   0.75000 
C          C       0.92640   0.51942   0.75000 
C          C       0.51942   0.07360   0.75000 
C          C       0.48058   0.92640   0.75000 
C          C       0.42640   0.98058   0.75000 
C          C       0.57360   0.01942   0.75000 
C          C       0.98058   0.57360   0.75000 
C          C       0.01942   0.42640   0.75000 
C          C       0.10777   0.60777   0.75000 
C          C       0.89223   0.39223   0.75000 
C          C       0.39223   0.10777   0.75000 
C          C       0.60777   0.89223   0.75000 
C          C       0.05349   0.55349   0.75000 
C          C       0.94651   0.44651   0.75000 
C          C       0.44651   0.05349   0.75000 
C          C       0.55349   0.94651   0.75000 
N          N       0.60123   0.64964   0.75000 
N          N       0.39877   0.35036   0.75000 
N          N       0.35036   0.60123   0.75000 
N          N       0.64964   0.39877   0.75000 
N          N       0.89877   0.14964   0.75000 
N          N       0.10123   0.85036   0.75000 
N          N       0.14964   0.10123   0.75000 
N          N       0.85036   0.89877   0.75000 
N          N       0.48052   0.60389   0.75000 
N          N       0.51948   0.39611   0.75000 
N          N       0.39611   0.48052   0.75000 
N          N       0.60389   0.51948   0.75000 
N          N       0.01948   0.10389   0.75000 
N          N       0.98052   0.89611   0.75000 
N          N       0.10389   0.98052   0.75000 
N          N       0.89611   0.01948   0.75000 
Zn         Zn      0.00000   0.00000   0.75000 
Zn         Zn      0.50000   0.50000   0.75000 
