data_crystal
 
_cell_length_a    18.52770
_cell_length_b    18.52770
_cell_length_c    50.00000
_cell_angle_alpha 90.00000
_cell_angle_beta  90.00000
_cell_angle_gamma 90.00000
 
_symmetry_space_group_name_Hall 'P 1'
_symmetry_space_group_name_H-M  'P 1'
 
loop_
_symmetry_equiv_pos_as_xyz
 'x,y,z' 
 
loop_
_atom_site_label
_atom_site_type_symbol
_atom_site_fract_x
_atom_site_fract_y
_atom_site_fract_z
C          C       0.53254   0.65968   0.25000 
C          C       0.46746   0.34032   0.25000 
C          C       0.34032   0.53254   0.25000 
C          C       0.65968   0.46746   0.25000 
C          C       0.96746   0.15968   0.25000 
C          C       0.03254   0.84032   0.25000 
C          C       0.15968   0.03254   0.25000 
C          C       0.84032   0.96746   0.25000 
C          C       0.07346   0.48092   0.25000 
C          C       0.92654   0.51908   0.25000 
C          C       0.51908   0.07346   0.25000 
C          C       0.48092   0.92654   0.25000 
C          C       0.42654   0.98092   0.25000 
C          C       0.57346   0.01908   0.25000 
C          C       0.98092   0.57346   0.25000 
C          C       0.01908   0.42654   0.25000 
C          C       0.10882   0.60882   0.25000 
C          C       0.89118   0.39118   0.25000 
C          C       0.39118   0.10882   0.25000 
C          C       0.60882   0.89118   0.25000 
C          C       0.05403   0.55404   0.25000 
C          C       0.94596   0.44597   0.25000 
C          C       0.44597   0.05403   0.25000 
C          C       0.55404   0.94596   0.25000 
C          C       0.71484   0.57776   0.25000 
C          C       0.28516   0.42224   0.25000 
C          C       0.42224   0.71484   0.25000 
C          C       0.57776   0.28516   0.25000 
C          C       0.78516   0.07776   0.25000 
C          C       0.21484   0.92224   0.25000 
C          C       0.07776   0.21484   0.25000 
C          C       0.92224   0.78516   0.25000 
C          C       0.41354   0.63592   0.25000 
C          C       0.58646   0.36408   0.25000 
C          C       0.36408   0.41354   0.25000 
C          C       0.63592   0.58646   0.25000 
C          C       0.08646   0.13592   0.25000 
C          C       0.91354   0.86408   0.25000 
C          C       0.13592   0.91354   0.25000 
C          C       0.86408   0.08646   0.25000 
C          C       0.27109   0.49695   0.25000 
C          C       0.72891   0.50304   0.25000 
C          C       0.50304   0.27109   0.25000 
C          C       0.49695   0.72891   0.25000 
C          C       0.22891   0.99696   0.25000 
C          C       0.77109   0.00305   0.25000 
C          C       0.99696   0.77109   0.25000 
C          C       0.00305   0.22891   0.25000 
C          C       0.14658   0.46234   0.25000 
C          C       0.85342   0.53766   0.25000 
C          C       0.53766   0.14658   0.25000 
C          C       0.46234   0.85342   0.25000 
C          C       0.35342   0.96234   0.25000 
C          C       0.64658   0.03766   0.25000 
C          C       0.96234   0.64658   0.25000 
C          C       0.03766   0.35342   0.25000 
C          C       0.19821   0.52089   0.25000 
C          C       0.80179   0.47911   0.25000 
C          C       0.47911   0.19821   0.25000 
C          C       0.52089   0.80179   0.25000 
C          C       0.30179   0.02089   0.25000 
C          C       0.69821   0.97911   0.25000 
C          C       0.02089   0.69821   0.25000 
C          C       0.97911   0.30179   0.25000 
C          C       0.83225   0.61176   0.25000 
C          C       0.16775   0.38824   0.25000 
C          C       0.38824   0.83225   0.25000 
C          C       0.61176   0.16775   0.25000 
C          C       0.66775   0.11176   0.25000 
C          C       0.33225   0.88824   0.25000 
C          C       0.11176   0.33225   0.25000 
C          C       0.88824   0.66775   0.25000 
N          N       0.17980   0.59110   0.25000 
N          N       0.82020   0.40890   0.25000 
N          N       0.40890   0.17980   0.25000 
N          N       0.59110   0.82020   0.25000 
N          N       0.32020   0.09110   0.25000 
N          N       0.67980   0.90890   0.25000 
N          N       0.09110   0.67980   0.25000 
N          N       0.90890   0.32020   0.25000 
N          N       0.63181   0.23745   0.25000 
N          N       0.36819   0.76255   0.25000 
N          N       0.76255   0.63181   0.25000 
N          N       0.23745   0.36819   0.25000 
N          N       0.86819   0.73745   0.25000 
N          N       0.13181   0.26255   0.25000 
N          N       0.73745   0.13181   0.25000 
N          N       0.26255   0.86819   0.25000 
N          N       0.60375   0.65032   0.25000 
N          N       0.39625   0.34968   0.25000 
N          N       0.34968   0.60375   0.25000 
N          N       0.65032   0.39625   0.25000 
N          N       0.89625   0.15032   0.25000 
N          N       0.10375   0.84968   0.25000 
N          N       0.15032   0.10375   0.25000 
N          N       0.84968   0.89625   0.25000 
N          N       0.48084   0.60543   0.25000 
N          N       0.51916   0.39457   0.25000 
N          N       0.39457   0.48084   0.25000 
N          N       0.60543   0.51916   0.25000 
N          N       0.01916   0.10543   0.25000 
N          N       0.98084   0.89457   0.25000 
N          N       0.10543   0.98084   0.25000 
N          N       0.89457   0.01916   0.25000 
Zn         Zn      0.00000   0.00000   0.25000 
Zn         Zn      0.50000   0.50000   0.25000 
C          C       0.53254   0.65968   0.75000 
C          C       0.46746   0.34032   0.75000 
C          C       0.34032   0.53254   0.75000 
C          C       0.65968   0.46746   0.75000 
C          C       0.96746   0.15968   0.75000 
C          C       0.03254   0.84032   0.75000 
C          C       0.15968   0.03254   0.75000 
C          C       0.84032   0.96746   0.75000 
C          C       0.07346   0.48092   0.75000 
C          C       0.92654   0.51908   0.75000 
C          C       0.51908   0.07346   0.75000 
C          C       0.48092   0.92654   0.75000 
C          C       0.42654   0.98092   0.75000 
C          C       0.57346   0.01908   0.75000 
C          C       0.98092   0.57346   0.75000 
C          C       0.01908   0.42654   0.75000 
C          C       0.10882   0.60882   0.75000 
C          C       0.89118   0.39118   0.75000 
C          C       0.39118   0.10882   0.75000 
C          C       0.60882   0.89118   0.75000 
C          C       0.05403   0.55404   0.75000 
C          C       0.94596   0.44597   0.75000 
C          C       0.44597   0.05403   0.75000 
C          C       0.55404   0.94596   0.75000 
C          C       0.71484   0.57776   0.75000 
C          C       0.28516   0.42224   0.75000 
C          C       0.42224   0.71484   0.75000 
C          C       0.57776   0.28516   0.75000 
C          C       0.78516   0.07776   0.75000 
C          C       0.21484   0.92224   0.75000 
C          C       0.07776   0.21484   0.75000 
C          C       0.92224   0.78516   0.75000 
C          C       0.41354   0.63592   0.75000 
C          C       0.58646   0.36408   0.75000 
C          C       0.36408   0.41354   0.75000 
C          C       0.63592   0.58646   0.75000 
C          C       0.08646   0.13592   0.75000 
C          C       0.91354   0.86408   0.75000 
C          C       0.13592   0.91354   0.75000 
C          C       0.86408   0.08646   0.75000 
C          C       0.27109   0.49695   0.75000 
C          C       0.72891   0.50304   0.75000 
C          C       0.50304   0.27109   0.75000 
C          C       0.49695   0.72891   0.75000 
C          C       0.22891   0.99696   0.75000 
C          C       0.77109   0.00305   0.75000 
C          C       0.99696   0.77109   0.75000 
C          C       0.00305   0.22891   0.75000 
C          C       0.14658   0.46234   0.75000 
C          C       0.85342   0.53766   0.75000 
C          C       0.53766   0.14658   0.75000 
C          C       0.46234   0.85342   0.75000 
C          C       0.35342   0.96234   0.75000 
C          C       0.64658   0.03766   0.75000 
C          C       0.96234   0.64658   0.75000 
C          C       0.03766   0.35342   0.75000 
C          C       0.19821   0.52089   0.75000 
C          C       0.80179   0.47911   0.75000 
C          C       0.47911   0.19821   0.75000 
C          C       0.52089   0.80179   0.75000 
C          C       0.30179   0.02089   0.75000 
C          C       0.69821   0.97911   0.75000 
C          C       0.02089   0.69821   0.75000 
C          C       0.97911   0.30179   0.75000 
C          C       0.83225   0.61176   0.75000 
C          C       0.16775   0.38824   0.75000 
C          C       0.38824   0.83225   0.75000 
C          C       0.61176   0.16775   0.75000 
C          C       0.66775   0.11176   0.75000 
C          C       0.33225   0.88824   0.75000 
C          C       0.11176   0.33225   0.75000 
C          C       0.88824   0.66775   0.75000 
N          N       0.17980   0.59110   0.75000 
N          N       0.82020   0.40890   0.75000 
N          N       0.40890   0.17980   0.75000 
N          N       0.59110   0.82020   0.75000 
N          N       0.32020   0.09110   0.75000 
N          N       0.67980   0.90890   0.75000 
N          N       0.09110   0.67980   0.75000 
N          N       0.90890   0.32020   0.75000 
N          N       0.63181   0.23745   0.75000 
N          N       0.36819   0.76255   0.75000 
N          N       0.76255   0.63181   0.75000 
N          N       0.23745   0.36819   0.75000 
N          N       0.86819   0.73745   0.75000 
N          N       0.13181   0.26255   0.75000 
N          N       0.73745   0.13181   0.75000 
N          N       0.26255   0.86819   0.75000 
N          N       0.60375   0.65032   0.75000 
N          N       0.39625   0.34968   0.75000 
N          N       0.34968   0.60375   0.75000 
N          N       0.65032   0.39625   0.75000 
N          N       0.89625   0.15032   0.75000 
N          N       0.10375   0.84968   0.75000 
N          N       0.15032   0.10375   0.75000 
N          N       0.84968   0.89625   0.75000 
N          N       0.48084   0.60543   0.75000 
N          N       0.51916   0.39457   0.75000 
N          N       0.39457   0.48084   0.75000 
N          N       0.60543   0.51916   0.75000 
N          N       0.01916   0.10543   0.75000 
N          N       0.98084   0.89457   0.75000 
N          N       0.10543   0.98084   0.75000 
N          N       0.89457   0.01916   0.75000 
Zn         Zn      0.00000   0.00000   0.75000 
Zn         Zn      0.50000   0.50000   0.75000 
