data_crystal
 
_cell_length_a    18.65810
_cell_length_b    18.65810
_cell_length_c    50.00000
_cell_angle_alpha 90.00000
_cell_angle_beta  90.00000
_cell_angle_gamma 90.00000
 
_symmetry_space_group_name_Hall 'P 1'
_symmetry_space_group_name_H-M  'P 1'
 
loop_
_symmetry_equiv_pos_as_xyz
 'x,y,z' 
 
loop_
_atom_site_label
_atom_site_type_symbol
_atom_site_fract_x
_atom_site_fract_y
_atom_site_fract_z
C          C       0.53342   0.66228   0.25000 
C          C       0.46658   0.33772   0.25000 
C          C       0.33772   0.53342   0.25000 
C          C       0.66228   0.46658   0.25000 
C          C       0.96658   0.16228   0.25000 
C          C       0.03342   0.83772   0.25000 
C          C       0.16228   0.03342   0.25000 
C          C       0.83772   0.96658   0.25000 
C          C       0.07290   0.48104   0.25000 
C          C       0.92710   0.51896   0.25000 
C          C       0.51896   0.07290   0.25000 
C          C       0.48104   0.92710   0.25000 
C          C       0.42710   0.98104   0.25000 
C          C       0.57290   0.01896   0.25000 
C          C       0.98104   0.57290   0.25000 
C          C       0.01896   0.42710   0.25000 
C          C       0.10809   0.60809   0.25000 
C          C       0.89191   0.39191   0.25000 
C          C       0.39191   0.10809   0.25000 
C          C       0.60809   0.89191   0.25000 
C          C       0.05366   0.55366   0.25000 
C          C       0.94634   0.44634   0.25000 
C          C       0.44634   0.05366   0.25000 
C          C       0.55366   0.94634   0.25000 
C          C       0.71671   0.57784   0.25000 
C          C       0.28329   0.42216   0.25000 
C          C       0.42216   0.71671   0.25000 
C          C       0.57784   0.28329   0.25000 
C          C       0.78329   0.07784   0.25000 
C          C       0.21671   0.92216   0.25000 
C          C       0.07784   0.21671   0.25000 
C          C       0.92216   0.78329   0.25000 
C          C       0.41224   0.63830   0.25000 
C          C       0.58776   0.36170   0.25000 
C          C       0.36170   0.41224   0.25000 
C          C       0.63830   0.58776   0.25000 
C          C       0.08776   0.13830   0.25000 
C          C       0.91224   0.86170   0.25000 
C          C       0.13830   0.91224   0.25000 
C          C       0.86170   0.08776   0.25000 
C          C       0.26931   0.49703   0.25000 
C          C       0.73069   0.50297   0.25000 
C          C       0.50297   0.26931   0.25000 
C          C       0.49703   0.73069   0.25000 
C          C       0.23069   0.99703   0.25000 
C          C       0.76931   0.00297   0.25000 
C          C       0.99703   0.76931   0.25000 
C          C       0.00297   0.23069   0.25000 
C          C       0.14560   0.46256   0.25000 
C          C       0.85440   0.53744   0.25000 
C          C       0.53744   0.14560   0.25000 
C          C       0.46256   0.85440   0.25000 
C          C       0.35440   0.96256   0.25000 
C          C       0.64560   0.03744   0.25000 
C          C       0.96256   0.64560   0.25000 
C          C       0.03744   0.35440   0.25000 
C          C       0.19683   0.52065   0.25000 
C          C       0.80317   0.47935   0.25000 
C          C       0.47935   0.19683   0.25000 
C          C       0.52065   0.80317   0.25000 
C          C       0.30317   0.02065   0.25000 
C          C       0.69683   0.97936   0.25000 
C          C       0.02065   0.69683   0.25000 
C          C       0.97936   0.30317   0.25000 
C          C       0.83353   0.61096   0.25000 
C          C       0.16647   0.38904   0.25000 
C          C       0.38904   0.83353   0.25000 
C          C       0.61096   0.16647   0.25000 
C          C       0.66647   0.11096   0.25000 
C          C       0.33353   0.88904   0.25000 
C          C       0.11096   0.33353   0.25000 
C          C       0.88904   0.66647   0.25000 
N          N       0.17856   0.59039   0.25000 
N          N       0.82144   0.40961   0.25000 
N          N       0.40961   0.17856   0.25000 
N          N       0.59039   0.82144   0.25000 
N          N       0.32144   0.09039   0.25000 
N          N       0.67856   0.90961   0.25000 
N          N       0.09039   0.67856   0.25000 
N          N       0.90961   0.32144   0.25000 
N          N       0.63106   0.23566   0.25000 
N          N       0.36894   0.76434   0.25000 
N          N       0.76434   0.63106   0.25000 
N          N       0.23566   0.36894   0.25000 
N          N       0.86894   0.73566   0.25000 
N          N       0.13106   0.26434   0.25000 
N          N       0.73566   0.13106   0.25000 
N          N       0.26434   0.86894   0.25000 
N          N       0.60401   0.65029   0.25000 
N          N       0.39599   0.34971   0.25000 
N          N       0.34971   0.60401   0.25000 
N          N       0.65029   0.39599   0.25000 
N          N       0.89599   0.15029   0.25000 
N          N       0.10401   0.84971   0.25000 
N          N       0.15029   0.10401   0.25000 
N          N       0.84971   0.89599   0.25000 
N          N       0.48002   0.61065   0.25000 
N          N       0.51998   0.38935   0.25000 
N          N       0.38935   0.48002   0.25000 
N          N       0.61065   0.51998   0.25000 
N          N       0.01998   0.11065   0.25000 
N          N       0.98002   0.88935   0.25000 
N          N       0.11065   0.98002   0.25000 
N          N       0.88935   0.01998   0.25000 
Hg         Hg      0.00000   0.00000   0.25000 
Hg         Hg      0.50000   0.50000   0.25000 
C          C       0.53342   0.66228   0.75000 
C          C       0.46658   0.33772   0.75000 
C          C       0.33772   0.53342   0.75000 
C          C       0.66228   0.46658   0.75000 
C          C       0.96658   0.16228   0.75000 
C          C       0.03342   0.83772   0.75000 
C          C       0.16228   0.03342   0.75000 
C          C       0.83772   0.96658   0.75000 
C          C       0.07290   0.48104   0.75000 
C          C       0.92710   0.51896   0.75000 
C          C       0.51896   0.07290   0.75000 
C          C       0.48104   0.92710   0.75000 
C          C       0.42710   0.98104   0.75000 
C          C       0.57290   0.01896   0.75000 
C          C       0.98104   0.57290   0.75000 
C          C       0.01896   0.42710   0.75000 
C          C       0.10809   0.60809   0.75000 
C          C       0.89191   0.39191   0.75000 
C          C       0.39191   0.10809   0.75000 
C          C       0.60809   0.89191   0.75000 
C          C       0.05366   0.55366   0.75000 
C          C       0.94634   0.44634   0.75000 
C          C       0.44634   0.05366   0.75000 
C          C       0.55366   0.94634   0.75000 
C          C       0.71671   0.57784   0.75000 
C          C       0.28329   0.42216   0.75000 
C          C       0.42216   0.71671   0.75000 
C          C       0.57784   0.28329   0.75000 
C          C       0.78329   0.07784   0.75000 
C          C       0.21671   0.92216   0.75000 
C          C       0.07784   0.21671   0.75000 
C          C       0.92216   0.78329   0.75000 
C          C       0.41224   0.63830   0.75000 
C          C       0.58776   0.36170   0.75000 
C          C       0.36170   0.41224   0.75000 
C          C       0.63830   0.58776   0.75000 
C          C       0.08776   0.13830   0.75000 
C          C       0.91224   0.86170   0.75000 
C          C       0.13830   0.91224   0.75000 
C          C       0.86170   0.08776   0.75000 
C          C       0.26931   0.49703   0.75000 
C          C       0.73069   0.50297   0.75000 
C          C       0.50297   0.26931   0.75000 
C          C       0.49703   0.73069   0.75000 
C          C       0.23069   0.99703   0.75000 
C          C       0.76931   0.00297   0.75000 
C          C       0.99703   0.76931   0.75000 
C          C       0.00297   0.23069   0.75000 
C          C       0.14560   0.46256   0.75000 
C          C       0.85440   0.53744   0.75000 
C          C       0.53744   0.14560   0.75000 
C          C       0.46256   0.85440   0.75000 
C          C       0.35440   0.96256   0.75000 
C          C       0.64560   0.03744   0.75000 
C          C       0.96256   0.64560   0.75000 
C          C       0.03744   0.35440   0.75000 
C          C       0.19683   0.52065   0.75000 
C          C       0.80317   0.47935   0.75000 
C          C       0.47935   0.19683   0.75000 
C          C       0.52065   0.80317   0.75000 
C          C       0.30317   0.02065   0.75000 
C          C       0.69683   0.97936   0.75000 
C          C       0.02065   0.69683   0.75000 
C          C       0.97936   0.30317   0.75000 
C          C       0.83353   0.61096   0.75000 
C          C       0.16647   0.38904   0.75000 
C          C       0.38904   0.83353   0.75000 
C          C       0.61096   0.16647   0.75000 
C          C       0.66647   0.11096   0.75000 
C          C       0.33353   0.88904   0.75000 
C          C       0.11096   0.33353   0.75000 
C          C       0.88904   0.66647   0.75000 
N          N       0.17856   0.59039   0.75000 
N          N       0.82144   0.40961   0.75000 
N          N       0.40961   0.17856   0.75000 
N          N       0.59039   0.82144   0.75000 
N          N       0.32144   0.09039   0.75000 
N          N       0.67856   0.90961   0.75000 
N          N       0.09039   0.67856   0.75000 
N          N       0.90961   0.32144   0.75000 
N          N       0.63106   0.23566   0.75000 
N          N       0.36894   0.76434   0.75000 
N          N       0.76434   0.63106   0.75000 
N          N       0.23566   0.36894   0.75000 
N          N       0.86894   0.73566   0.75000 
N          N       0.13106   0.26434   0.75000 
N          N       0.73566   0.13106   0.75000 
N          N       0.26434   0.86894   0.75000 
N          N       0.60401   0.65029   0.75000 
N          N       0.39599   0.34971   0.75000 
N          N       0.34971   0.60401   0.75000 
N          N       0.65029   0.39599   0.75000 
N          N       0.89599   0.15029   0.75000 
N          N       0.10401   0.84971   0.75000 
N          N       0.15029   0.10401   0.75000 
N          N       0.84971   0.89599   0.75000 
N          N       0.48002   0.61065   0.75000 
N          N       0.51998   0.38935   0.75000 
N          N       0.38935   0.48002   0.75000 
N          N       0.61065   0.51998   0.75000 
N          N       0.01998   0.11065   0.75000 
N          N       0.98002   0.88935   0.75000 
N          N       0.11065   0.98002   0.75000 
N          N       0.88935   0.01998   0.75000 
Hg         Hg      0.00000   0.00000   0.75000 
Hg         Hg      0.50000   0.50000   0.75000 
