data_crystal
 
_cell_length_a    13.72410
_cell_length_b    13.72410
_cell_length_c    50.00000
_cell_angle_alpha 90.00000
_cell_angle_beta  90.00000
_cell_angle_gamma 90.00000
 
_space_group_name_Hall 'P 1'
_space_group_name_H-M_alt  'P 1'
 
loop_
_symmetry_equiv_pos_as_xyz
 'x,y,z' 
 
loop_
_atom_site_label
_atom_site_type_symbol
_atom_site_fract_x
_atom_site_fract_y
_atom_site_fract_z
H          H       0.12842   0.62842   0.25000 
H          H       0.87158   0.37158   0.25000 
H          H       0.37158   0.12842   0.25000 
H          H       0.62842   0.87158   0.25000 
C          C       0.09894   0.47466   0.25000 
C          C       0.90106   0.52534   0.25000 
C          C       0.52534   0.09894   0.25000 
C          C       0.47466   0.90106   0.25000 
C          C       0.40106   0.97466   0.25000 
C          C       0.59894   0.02534   0.25000 
C          C       0.97466   0.59894   0.25000 
C          C       0.02534   0.40106   0.25000 
C          C       0.07227   0.57227   0.25000 
C          C       0.92773   0.42773   0.25000 
C          C       0.42773   0.07227   0.25000 
C          C       0.57227   0.92773   0.25000 
C          C       0.50642   0.71717   0.25000 
C          C       0.49358   0.28283   0.25000 
C          C       0.28283   0.50642   0.25000 
C          C       0.71717   0.49358   0.25000 
C          C       0.99358   0.21717   0.25000 
C          C       0.00642   0.78283   0.25000 
C          C       0.21717   0.00642   0.25000 
C          C       0.78283   0.99358   0.25000 
C          C       0.77210   0.65366   0.25000 
C          C       0.22790   0.34634   0.25000 
C          C       0.34634   0.77210   0.25000 
C          C       0.65366   0.22790   0.25000 
C          C       0.72790   0.15366   0.25000 
C          C       0.27210   0.84634   0.25000 
C          C       0.15366   0.27210   0.25000 
C          C       0.84634   0.72790   0.25000 
C          C       0.35224   0.66475   0.25000 
C          C       0.64776   0.33525   0.25000 
C          C       0.33525   0.35224   0.25000 
C          C       0.66475   0.64776   0.25000 
C          C       0.14776   0.16475   0.25000 
C          C       0.85224   0.83525   0.25000 
C          C       0.16475   0.85224   0.25000 
C          C       0.83525   0.14776   0.25000 
C          C       0.19743   0.44417   0.25000 
C          C       0.80257   0.55583   0.25000 
C          C       0.55583   0.19743   0.25000 
C          C       0.44417   0.80257   0.25000 
C          C       0.30257   0.94417   0.25000 
C          C       0.69743   0.05583   0.25000 
C          C       0.94417   0.69743   0.25000 
C          C       0.05583   0.30257   0.25000 
N          N       0.60364   0.72255   0.25000 
N          N       0.39636   0.27745   0.25000 
N          N       0.27745   0.60364   0.25000 
N          N       0.72255   0.39636   0.25000 
N          N       0.89636   0.22255   0.25000 
N          N       0.10364   0.77745   0.25000 
N          N       0.22255   0.10364   0.25000 
N          N       0.77745   0.89636   0.25000 
N          N       0.44866   0.63586   0.25000 
N          N       0.55134   0.36414   0.25000 
N          N       0.36414   0.44866   0.25000 
N          N       0.63586   0.55134   0.25000 
N          N       0.05134   0.13586   0.25000 
N          N       0.94866   0.86414   0.25000 
N          N       0.13586   0.94866   0.25000 
N          N       0.86414   0.05134   0.25000 
Zn         Zn      0.00000   0.00000   0.25000 
Zn         Zn      0.50000   0.50000   0.25000 
H          H       0.12842   0.62842   0.75000 
H          H       0.87158   0.37158   0.75000 
H          H       0.37158   0.12842   0.75000 
H          H       0.62842   0.87158   0.75000 
C          C       0.09894   0.47466   0.75000 
C          C       0.90106   0.52534   0.75000 
C          C       0.52534   0.09894   0.75000 
C          C       0.47466   0.90106   0.75000 
C          C       0.40106   0.97466   0.75000 
C          C       0.59894   0.02534   0.75000 
C          C       0.97466   0.59894   0.75000 
C          C       0.02534   0.40106   0.75000 
C          C       0.07227   0.57227   0.75000 
C          C       0.92773   0.42773   0.75000 
C          C       0.42773   0.07227   0.75000 
C          C       0.57227   0.92773   0.75000 
C          C       0.50642   0.71717   0.75000 
C          C       0.49358   0.28283   0.75000 
C          C       0.28283   0.50642   0.75000 
C          C       0.71717   0.49358   0.75000 
C          C       0.99358   0.21717   0.75000 
C          C       0.00642   0.78283   0.75000 
C          C       0.21717   0.00642   0.75000 
C          C       0.78283   0.99358   0.75000 
C          C       0.77210   0.65366   0.75000 
C          C       0.22790   0.34634   0.75000 
C          C       0.34634   0.77210   0.75000 
C          C       0.65366   0.22790   0.75000 
C          C       0.72790   0.15366   0.75000 
C          C       0.27210   0.84634   0.75000 
C          C       0.15366   0.27210   0.75000 
C          C       0.84634   0.72790   0.75000 
C          C       0.35224   0.66475   0.75000 
C          C       0.64776   0.33525   0.75000 
C          C       0.33525   0.35224   0.75000 
C          C       0.66475   0.64776   0.75000 
C          C       0.14776   0.16475   0.75000 
C          C       0.85224   0.83525   0.75000 
C          C       0.16475   0.85224   0.75000 
C          C       0.83525   0.14776   0.75000 
C          C       0.19743   0.44417   0.75000 
C          C       0.80257   0.55583   0.75000 
C          C       0.55583   0.19743   0.75000 
C          C       0.44417   0.80257   0.75000 
C          C       0.30257   0.94417   0.75000 
C          C       0.69743   0.05583   0.75000 
C          C       0.94417   0.69743   0.75000 
C          C       0.05583   0.30257   0.75000 
N          N       0.60364   0.72255   0.75000 
N          N       0.39636   0.27745   0.75000 
N          N       0.27745   0.60364   0.75000 
N          N       0.72255   0.39636   0.75000 
N          N       0.89636   0.22255   0.75000 
N          N       0.10364   0.77745   0.75000 
N          N       0.22255   0.10364   0.75000 
N          N       0.77745   0.89636   0.75000 
N          N       0.44866   0.63586   0.75000 
N          N       0.55134   0.36414   0.75000 
N          N       0.36414   0.44866   0.75000 
N          N       0.63586   0.55134   0.75000 
N          N       0.05134   0.13586   0.75000 
N          N       0.94866   0.86414   0.75000 
N          N       0.13586   0.94866   0.75000 
N          N       0.86414   0.05134   0.75000 
Zn         Zn      0.00000   0.00000   0.75000 
Zn         Zn      0.50000   0.50000   0.75000 
