data_crystal
 
_cell_length_a    35.73100
_cell_length_b    36.16300
_cell_length_c    8.88600
_cell_angle_alpha 79.70000
_cell_angle_beta  83.30000
_cell_angle_gamma 59.70000
 
_space_group_name_Hall 'P 1'
_space_group_name_H-M_alt  'P 1'
 
loop_
_symmetry_equiv_pos_as_xyz
 'x,y,z' 
 
loop_
_atom_site_label
_atom_site_type_symbol
_atom_site_fract_x
_atom_site_fract_y
_atom_site_fract_z
C          C       0.51680   0.93490   0.16910 
C          C       0.56710   0.92800   0.48920 
C          C       0.55500   0.90840   0.08155 
C          C       0.57920   0.86240   0.10500 
C          C       0.58170   0.81560   0.27260 
C          C       0.56030   0.80840   0.37090 
C          C       0.62320   0.77940   0.21585 
C          C       0.57750   0.76650   0.42415 
C          C       0.64220   0.74030   0.27695 
C          C       0.61880   0.73180   0.37580 
C          C       0.63870   0.68720   0.42515 
C          C       0.61180   0.66750   0.40430 
C          C       0.68330   0.66110   0.46540 
C          C       0.62810   0.62460   0.44010 
C          C       0.70060   0.61940   0.00665 
C          C       0.67360   0.60070   0.48195 
C          C       0.74600   0.59800   0.06255 
C          C       0.75910   0.56820   0.16590 
C          C       0.77920   0.60680   0.03010 
C          C       0.80230   0.54650   0.23145 
C          C       0.82270   0.58460   0.08700 
C          C       0.83570   0.55170   0.17590 
C          C       0.59790   0.60780   0.41645 
C          C       0.60070   0.58010   0.01665 
C          C       0.56080   0.62330   0.31515 
C          C       0.57180   0.56380   0.00040 
C          C       0.53030   0.60990   0.31135 
C          C       0.53730   0.57650   0.39165 
C          C       0.49780   0.54650   0.24055 
C          C       0.46700   0.52750   0.21550 
C          C       0.43150   0.53960   0.10290 
C          C       0.47480   0.49460   0.30350 
C          C       0.40800   0.51700   0.08300 
C          C       0.44860   0.47570   0.28925 
C          C       0.41330   0.48820   0.18205 
C          C       0.01140   0.42140   0.41515 
C          C       0.02420   0.46630   0.13555 
C          C       0.04010   0.43010   0.01540 
C          C       0.08350   0.41120   0.46985 
C          C       0.38700   0.46640   0.16675 
C          C       0.14920   0.35820   0.34345 
C          C       0.15660   0.38020   0.24940 
C          C       0.18480   0.32060   0.39535 
C          C       0.19640   0.36120   0.17080 
C          C       0.22450   0.30320   0.32225 
C          C       0.23170   0.32340   0.21620 
C          C       0.35540   0.42520   0.04390 
C          C       0.32480   0.43290   0.14680 
C          C       0.37120   0.38720   0.43425 
C          C       0.31580   0.39970   0.15210 
C          C       0.36180   0.35440   0.43815 
C          C       0.33420   0.36020   0.05040 
C          C       0.27510   0.30710   0.16195 
C          C       0.28780   0.33600   0.13100 
C          C       0.30410   0.26390   0.12640 
C          C       0.32490   0.32550   0.06210 
C          C       0.34580   0.24990   0.06435 
C          C       0.35410   0.28040   0.02620 
C          C       0.37510   0.20370   0.03485 
C          C       0.40920   0.18410   0.43050 
C          C       0.37180   0.17490   0.11350 
C          C       0.43840   0.14040   0.40865 
C          C       0.39780   0.13070   0.08700 
C          C       0.43440   0.11310   0.49260 
C          C       0.49850   0.42020   0.45145 
C          C       0.62420   0.91910   0.33385 
C          C       0.37260   0.59880   0.47040 
C          C       0.04700   0.51310   0.30345 
C          C       0.36420   0.64150   0.42870 
C          C       0.33350   0.68320   0.49305 
C          C       0.08170   0.52630   0.30805 
C          C       0.09250   0.55170   0.42820 
C          C       0.20960   0.02620   0.28680 
C          C       0.31960   0.75290   0.41395 
C          C       0.27440   0.82390   0.00160 
C          C       0.30220   0.82190   0.38585 
C          C       0.15190   0.57030   0.40460 
C          C       0.21240   0.57830   0.38895 
C          C       0.28090   0.97790   0.42980 
C          C       0.36970   0.76170   0.25340 
C          C       0.25400   0.77490   0.07640 
C          C       0.21340   0.51530   0.21510 
C          C       0.47750   0.04610   0.08310 
C          C       0.90220   0.50550   0.07595 
C          C       0.50480   0.99810   0.07285 
C          C       0.49110   0.97850   0.16440 
C          C       0.54320   0.97270   0.49490 
C          C       0.95030   0.48080   0.06580 
C          C       0.96430   0.44890   0.44130 
C          C       0.97860   0.49250   0.16465 
C          C       0.91760   0.22130   0.15250 
C          C       0.97100   0.23620   0.04965 
C          C       0.43420   0.98690   0.31065 
C          C       0.94280   0.40590   0.22730 
C          C       0.38460   0.01040   0.31780 
C          C       0.35200   0.00740   0.21645 
C          C       0.27190   0.03420   0.28660 
C          C       0.19970   0.06040   0.20895 
C          C       0.52750   0.37720   0.36185 
C          C       0.56880   0.34400   0.39275 
C          C       0.92860   0.37950   0.28585 
C          C       0.93740   0.34000   0.20095 
C          C       0.23860   0.09860   0.13935 
C          C       0.62170   0.27350   0.23995 
C          C       0.67060   0.20320   0.14600 
C          C       0.68710   0.21870   0.29075 
C          C       0.74050   0.03590   0.05220 
C          C       0.91330   0.28850   0.25410 
C          C       0.88450   0.24540   0.27475 
C          C       0.67220   0.28660   0.44740 
C          C       0.84630   0.31860   0.42320 
C          C       0.59930   0.23480   0.00530 
C          C       0.67080   0.04730   0.41165 
C          C       0.65400   0.93370   0.42170 
C          C       0.66540   0.96460   0.39880 
C          C       0.18240   0.61390   0.00705 
C          C       0.71640   0.98690   0.05725 
C          C       0.76650   0.00840   0.15285 
C          C       0.77260   0.94310   0.24410 
C          C       0.11110   0.63550   0.11325 
H          H       0.50270   0.91740   0.20570 
H          H       0.61270   0.83910   0.05925 
H          H       0.52600   0.83390   0.40070 
H          H       0.63870   0.78370   0.13040 
H          H       0.56170   0.75990   0.00780 
H          H       0.67390   0.71370   0.23580 
H          H       0.57790   0.69040   0.37405 
H          H       0.70450   0.67650   0.48470 
H          H       0.68550   0.56660   0.49395 
H          H       0.73560   0.56140   0.19620 
H          H       0.77010   0.63070   0.45515 
H          H       0.81190   0.52110   0.30310 
H          H       0.84320   0.59530   0.04530 
H          H       0.62260   0.57310   0.11845 
H          H       0.55540   0.64760   0.24460 
H          H       0.57510   0.54410   0.08110 
H          H       0.50300   0.62000   0.24085 
H          H       0.50350   0.55580   0.13680 
H          H       0.50560   0.47930   0.36720 
H          H       0.38820   0.51700   0.48005 
H          H       0.02370   0.39590   0.31615 
H          H       0.09590   0.43420   0.00845 
H          H       0.38190   0.45980   0.28220 
H          H       0.13650   0.41260   0.22285 
H          H       0.17970   0.30200   0.46585 
H          H       0.19850   0.38410   0.10685 
H          H       0.25330   0.27730   0.37415 
H          H       0.30930   0.46490   0.22430 
H          H       0.39660   0.37810   0.36110 
H          H       0.29610   0.40250   0.24350 
H          H       0.37170   0.32780   0.34725 
H          H       0.26790   0.36860   0.18590 
H          H       0.29780   0.23950   0.13710 
H          H       0.38240   0.27110   0.46710 
H          H       0.41090   0.20360   0.35215 
H          H       0.34910   0.18730   0.20540 
H          H       0.46380   0.12410   0.31915 
H          H       0.39950   0.10990   0.16620 
H          H       0.92470   0.41200   0.12205 
H          H       0.97840   0.38460   0.19155 
H          H       0.51520   0.43840   0.49030 
H          H       0.49370   0.41490   0.06460 
H          H       0.44430   0.95170   0.28250 
H          H       0.44280   0.99310   0.40895 
H          H       0.36340   0.58230   0.37865 
H          H       0.35210   0.60600   0.06715 
H          H       0.30770   0.69050   0.06720 
H          H       0.35500   0.98340   0.10655 
H          H       0.19710   0.03520   0.40855 
H          H       0.20330   0.00060   0.24740 
H          H       0.28490   0.82990   0.12525 
H          H       0.24100   0.85060   0.49770 
H          H       0.28270   0.83180   0.27440 
H          H       0.31310   0.84400   0.40490 
H          H       0.20820   0.59610   0.28680 
H          H       0.24760   0.56000   0.41930 
H          H       0.27280   0.95260   0.42215 
H          H       0.31820   0.96320   0.42810 
H          H       0.26890   0.99840   0.04775 
H          H       0.40010   0.73230   0.26920 
H          H       0.35570   0.75510   0.13015 
H          H       0.37720   0.78800   0.25565 
H          H       0.24670   0.75080   0.01790 
H          H       0.26960   0.76750   0.19535 
H          H       0.22220   0.80540   0.09805 
H          H       0.20760   0.48960   0.22095 
H          H       0.20090   0.53050   0.10235 
H          H       0.24620   0.50540   0.21700 
H          H       0.46690   0.06330   0.20030 
H          H       0.88600   0.51550   0.46270 
H          H       0.55500   0.99120   0.44880 
H          H       0.96200   0.52290   0.24105 
H          H       0.95750   0.31890   0.10030 
H          H       0.90510   0.21870   0.03685 
H          H       0.94120   0.18680   0.17075 
H          H       0.95700   0.24490   0.43415 
H          H       0.99060   0.24840   0.09330 
H          H       0.99160   0.20120   0.03690 
H          H       0.64520   0.89130   0.24680 
H          H       0.60030   0.94550   0.29150 
H          H       0.01630   0.54060   0.25850 
H          H       0.03670   0.51460   0.41875 
H          H       0.16980   0.09090   0.24200 
H          H       0.19540   0.05040   0.08260 
H          H       0.59080   0.34430   0.48420 
H          H       0.65540   0.98570   0.33135 
H          H       0.20770   0.12900   0.14770 
H          H       0.26330   0.10760   0.17155 
H          H       0.24410   0.08490   0.01025 
H          H       0.67310   0.17180   0.13455 
H          H       0.68440   0.20200   0.03865 
H          H       0.72190   0.20900   0.29410 
H          H       0.68660   0.20120   0.37865 
H          H       0.76020   0.02410   0.44690 
H          H       0.72640   0.07200   0.09045 
H          H       0.89650   0.23100   0.38765 
H          H       0.85240   0.24850   0.24720 
H          H       0.65540   0.32160   0.44015 
H          H       0.66360   0.28430   0.06330 
H          H       0.70710   0.27460   0.44885 
H          H       0.83310   0.35100   0.40015 
H          H       0.81920   0.31230   0.39285 
H          H       0.85780   0.31910   0.04630 
H          H       0.56520   0.25010   0.02005 
H          H       0.60780   0.24190   0.40275 
H          H       0.61070   0.20070   0.46995 
H          H       0.68320   0.03100   0.29610 
H          H       0.63990   0.04950   0.42675 
H          H       0.66530   0.07990   0.41595 
H          H       0.07180   0.57550   0.02205 
H          H       0.16920   0.64870   0.49935 
H          H       0.19850   0.61030   0.12060 
H          H       0.75970   0.02600   0.27405 
H          H       0.80160   0.99600   0.14140 
H          H       0.80850   0.93000   0.25415 
H          H       0.75940   0.95430   0.36395 
H          H       0.76420   0.91840   0.19215 
H          H       0.08120   0.63580   0.07200 
H          H       0.12000   0.62330   0.22410 
H          H       0.10510   0.66980   0.13835 
H          H       0.09930   0.20080   0.31925 
H          H       0.15260   0.78650   0.20500 
H          H       0.58010   0.13990   0.29680 
H          H       0.80040   0.14430   0.35240 
H          H       0.68800   0.36420   0.04745 
H          H       0.68810   0.36900   0.36580 
H          H       0.20120   0.91560   0.39420 
N          N       0.56270   0.85470   0.21280 
N          N       0.51250   0.55640   0.37635 
N          N       0.10630   0.37330   0.39060 
N          N       0.37350   0.45220   0.03845 
N          N       0.33680   0.70870   0.39930 
N          N       0.12560   0.55160   0.35785 
N          N       0.37030   0.68160   0.29055 
N          N       0.10520   0.51490   0.18130 
N          N       0.13220   0.52970   0.21160 
N          N       0.19390   0.54920   0.34285 
N          N       0.28160   0.78060   0.47755 
N          N       0.33800   0.77430   0.36425 
N          N       0.25760   0.00770   0.31615 
N          N       0.46320   0.06780   0.46855 
N          N       0.88100   0.52370   0.20255 
N          N       0.93800   0.24830   0.15510 
N          N       0.36880   0.02940   0.45505 
N          N       0.32850   0.03840   0.45710 
N          N       0.31650   0.02490   0.31960 
N          N       0.23890   0.06690   0.22590 
N          N       0.58340   0.31540   0.25880 
N          N       0.54870   0.32870   0.15105 
N          N       0.51600   0.36620   0.21045 
N          N       0.90440   0.38750   0.40490 
N          N       0.89910   0.35500   0.41070 
N          N       0.91940   0.32430   0.27935 
N          N       0.62570   0.24020   0.13610 
N          N       0.65900   0.26450   0.32410 
N          N       0.87960   0.28740   0.31495 
N          N       0.70630   0.02430   0.01915 
N          N       0.14410   0.60910   0.00180 
N          N       0.67630   0.91440   0.04715 
N          N       0.69750   0.93400   0.11045 
N          N       0.69360   0.96260   0.01890 
N          N       0.75590   0.97330   0.13735 
N          N       0.38270   0.64200   0.30495 
O          O       0.60790   0.90490   0.43270 
O          O       0.05680   0.47400   0.20915 
O          O       0.42050   0.57400   0.02095 
O          O       0.45960   0.44180   0.36580 
O          O       0.44790   0.00010   0.20125 
O          O       0.93360   0.44520   0.34175 
O          O       0.12250   0.19290   0.25260 
O          O       0.15860   0.76460   0.27040 
O          O       0.58980   0.13590   0.19125 
O          O       0.81300   0.14920   0.45715 
O          O       0.67180   0.38410   0.47075 
O          O       0.22030   0.92720   0.41175 
C          C       0.51680   0.93490   0.66910 
C          C       0.56710   0.92800   0.98920 
C          C       0.55500   0.90840   0.58155 
C          C       0.57920   0.86240   0.60500 
C          C       0.58170   0.81560   0.77260 
C          C       0.56030   0.80840   0.87090 
C          C       0.62320   0.77940   0.71585 
C          C       0.57750   0.76650   0.92415 
C          C       0.64220   0.74030   0.77695 
C          C       0.61880   0.73180   0.87580 
C          C       0.63870   0.68720   0.92515 
C          C       0.61180   0.66750   0.90430 
C          C       0.68330   0.66110   0.96540 
C          C       0.62810   0.62460   0.94010 
C          C       0.70060   0.61940   0.50665 
C          C       0.67360   0.60070   0.98195 
C          C       0.74600   0.59800   0.56255 
C          C       0.75910   0.56820   0.66590 
C          C       0.77920   0.60680   0.53010 
C          C       0.80230   0.54650   0.73145 
C          C       0.82270   0.58460   0.58700 
C          C       0.83570   0.55170   0.67590 
C          C       0.59790   0.60780   0.91645 
C          C       0.60070   0.58010   0.51665 
C          C       0.56080   0.62330   0.81515 
C          C       0.57180   0.56380   0.50040 
C          C       0.53030   0.60990   0.81135 
C          C       0.53730   0.57650   0.89165 
C          C       0.49780   0.54650   0.74055 
C          C       0.46700   0.52750   0.71550 
C          C       0.43150   0.53960   0.60290 
C          C       0.47480   0.49460   0.80350 
C          C       0.40800   0.51700   0.58300 
C          C       0.44860   0.47570   0.78925 
C          C       0.41330   0.48820   0.68205 
C          C       0.01140   0.42140   0.91515 
C          C       0.02420   0.46630   0.63555 
C          C       0.04010   0.43010   0.51540 
C          C       0.08350   0.41120   0.96985 
C          C       0.38700   0.46640   0.66675 
C          C       0.14920   0.35820   0.84345 
C          C       0.15660   0.38020   0.74940 
C          C       0.18480   0.32060   0.89535 
C          C       0.19640   0.36120   0.67080 
C          C       0.22450   0.30320   0.82225 
C          C       0.23170   0.32340   0.71620 
C          C       0.35540   0.42520   0.54390 
C          C       0.32480   0.43290   0.64680 
C          C       0.37120   0.38720   0.93425 
C          C       0.31580   0.39970   0.65210 
C          C       0.36180   0.35440   0.93815 
C          C       0.33420   0.36020   0.55040 
C          C       0.27510   0.30710   0.66195 
C          C       0.28780   0.33600   0.63100 
C          C       0.30410   0.26390   0.62640 
C          C       0.32490   0.32550   0.56210 
C          C       0.34580   0.24990   0.56435 
C          C       0.35410   0.28040   0.52620 
C          C       0.37510   0.20370   0.53485 
C          C       0.40920   0.18410   0.93050 
C          C       0.37180   0.17490   0.61350 
C          C       0.43840   0.14040   0.90865 
C          C       0.39780   0.13070   0.58700 
C          C       0.43440   0.11310   0.99260 
C          C       0.49850   0.42020   0.95145 
C          C       0.62420   0.91910   0.83385 
C          C       0.37260   0.59880   0.97040 
C          C       0.04700   0.51310   0.80345 
C          C       0.36420   0.64150   0.92870 
C          C       0.33350   0.68320   0.99305 
C          C       0.08170   0.52630   0.80805 
C          C       0.09250   0.55170   0.92820 
C          C       0.20960   0.02620   0.78680 
C          C       0.31960   0.75290   0.91395 
C          C       0.27440   0.82390   0.50160 
C          C       0.30220   0.82190   0.88585 
C          C       0.15190   0.57030   0.90460 
C          C       0.21240   0.57830   0.88895 
C          C       0.28090   0.97790   0.92980 
C          C       0.36970   0.76170   0.75340 
C          C       0.25400   0.77490   0.57640 
C          C       0.21340   0.51530   0.71510 
C          C       0.47750   0.04610   0.58310 
C          C       0.90220   0.50550   0.57595 
C          C       0.50480   0.99810   0.57285 
C          C       0.49110   0.97850   0.66440 
C          C       0.54320   0.97270   0.99490 
C          C       0.95030   0.48080   0.56580 
C          C       0.96430   0.44890   0.94130 
C          C       0.97860   0.49250   0.66465 
C          C       0.91760   0.22130   0.65250 
C          C       0.97100   0.23620   0.54965 
C          C       0.43420   0.98690   0.81065 
C          C       0.94280   0.40590   0.72730 
C          C       0.38460   0.01040   0.81780 
C          C       0.35200   0.00740   0.71645 
C          C       0.27190   0.03420   0.78660 
C          C       0.19970   0.06040   0.70895 
C          C       0.52750   0.37720   0.86185 
C          C       0.56880   0.34400   0.89275 
C          C       0.92860   0.37950   0.78585 
C          C       0.93740   0.34000   0.70095 
C          C       0.23860   0.09860   0.63935 
C          C       0.62170   0.27350   0.73995 
C          C       0.67060   0.20320   0.64600 
C          C       0.68710   0.21870   0.79075 
C          C       0.74050   0.03590   0.55220 
C          C       0.91330   0.28850   0.75410 
C          C       0.88450   0.24540   0.77475 
C          C       0.67220   0.28660   0.94740 
C          C       0.84630   0.31860   0.92320 
C          C       0.59930   0.23480   0.50530 
C          C       0.67080   0.04730   0.91165 
C          C       0.65400   0.93370   0.92170 
C          C       0.66540   0.96460   0.89880 
C          C       0.18240   0.61390   0.50705 
C          C       0.71640   0.98690   0.55725 
C          C       0.76650   0.00840   0.65285 
C          C       0.77260   0.94310   0.74410 
C          C       0.11110   0.63550   0.61325 
H          H       0.50270   0.91740   0.70570 
H          H       0.61270   0.83910   0.55925 
H          H       0.52600   0.83390   0.90070 
H          H       0.63870   0.78370   0.63040 
H          H       0.56170   0.75990   0.50780 
H          H       0.67390   0.71370   0.73580 
H          H       0.57790   0.69040   0.87405 
H          H       0.70450   0.67650   0.98470 
H          H       0.68550   0.56660   0.99395 
H          H       0.73560   0.56140   0.69620 
H          H       0.77010   0.63070   0.95515 
H          H       0.81190   0.52110   0.80310 
H          H       0.84320   0.59530   0.54530 
H          H       0.62260   0.57310   0.61845 
H          H       0.55540   0.64760   0.74460 
H          H       0.57510   0.54410   0.58110 
H          H       0.50300   0.62000   0.74085 
H          H       0.50350   0.55580   0.63680 
H          H       0.50560   0.47930   0.86720 
H          H       0.38820   0.51700   0.98005 
H          H       0.02370   0.39590   0.81615 
H          H       0.09590   0.43420   0.50845 
H          H       0.38190   0.45980   0.78220 
H          H       0.13650   0.41260   0.72285 
H          H       0.17970   0.30200   0.96585 
H          H       0.19850   0.38410   0.60685 
H          H       0.25330   0.27730   0.87415 
H          H       0.30930   0.46490   0.72430 
H          H       0.39660   0.37810   0.86110 
H          H       0.29610   0.40250   0.74350 
H          H       0.37170   0.32780   0.84725 
H          H       0.26790   0.36860   0.68590 
H          H       0.29780   0.23950   0.63710 
H          H       0.38240   0.27110   0.96710 
H          H       0.41090   0.20360   0.85215 
H          H       0.34910   0.18730   0.70540 
H          H       0.46380   0.12410   0.81915 
H          H       0.39950   0.10990   0.66620 
H          H       0.92470   0.41200   0.62205 
H          H       0.97840   0.38460   0.69155 
H          H       0.51520   0.43840   0.99030 
H          H       0.49370   0.41490   0.56460 
H          H       0.44430   0.95170   0.78250 
H          H       0.44280   0.99310   0.90895 
H          H       0.36340   0.58230   0.87865 
H          H       0.35210   0.60600   0.56715 
H          H       0.30770   0.69050   0.56720 
H          H       0.35500   0.98340   0.60655 
H          H       0.19710   0.03520   0.90855 
H          H       0.20330   0.00060   0.74740 
H          H       0.28490   0.82990   0.62525 
H          H       0.24100   0.85060   0.99770 
H          H       0.28270   0.83180   0.77440 
H          H       0.31310   0.84400   0.90490 
H          H       0.20820   0.59610   0.78680 
H          H       0.24760   0.56000   0.91930 
H          H       0.27280   0.95260   0.92215 
H          H       0.31820   0.96320   0.92810 
H          H       0.26890   0.99840   0.54775 
H          H       0.40010   0.73230   0.76920 
H          H       0.35570   0.75510   0.63015 
H          H       0.37720   0.78800   0.75565 
H          H       0.24670   0.75080   0.51790 
H          H       0.26960   0.76750   0.69535 
H          H       0.22220   0.80540   0.59805 
H          H       0.20760   0.48960   0.72095 
H          H       0.20090   0.53050   0.60235 
H          H       0.24620   0.50540   0.71700 
H          H       0.46690   0.06330   0.70030 
H          H       0.88600   0.51550   0.96270 
H          H       0.55500   0.99120   0.94880 
H          H       0.96200   0.52290   0.74105 
H          H       0.95750   0.31890   0.60030 
H          H       0.90510   0.21870   0.53685 
H          H       0.94120   0.18680   0.67075 
H          H       0.95700   0.24490   0.93415 
H          H       0.99060   0.24840   0.59330 
H          H       0.99160   0.20120   0.53690 
H          H       0.64520   0.89130   0.74680 
H          H       0.60030   0.94550   0.79150 
H          H       0.01630   0.54060   0.75850 
H          H       0.03670   0.51460   0.91875 
H          H       0.16980   0.09090   0.74200 
H          H       0.19540   0.05040   0.58260 
H          H       0.59080   0.34430   0.98420 
H          H       0.65540   0.98570   0.83135 
H          H       0.20770   0.12900   0.64770 
H          H       0.26330   0.10760   0.67155 
H          H       0.24410   0.08490   0.51025 
H          H       0.67310   0.17180   0.63455 
H          H       0.68440   0.20200   0.53865 
H          H       0.72190   0.20900   0.79410 
H          H       0.68660   0.20120   0.87865 
H          H       0.76020   0.02410   0.94690 
H          H       0.72640   0.07200   0.59045 
H          H       0.89650   0.23100   0.88765 
H          H       0.85240   0.24850   0.74720 
H          H       0.65540   0.32160   0.94015 
H          H       0.66360   0.28430   0.56330 
H          H       0.70710   0.27460   0.94885 
H          H       0.83310   0.35100   0.90015 
H          H       0.81920   0.31230   0.89285 
H          H       0.85780   0.31910   0.54630 
H          H       0.56520   0.25010   0.52005 
H          H       0.60780   0.24190   0.90275 
H          H       0.61070   0.20070   0.96995 
H          H       0.68320   0.03100   0.79610 
H          H       0.63990   0.04950   0.92675 
H          H       0.66530   0.07990   0.91595 
H          H       0.07180   0.57550   0.52205 
H          H       0.16920   0.64870   0.99935 
H          H       0.19850   0.61030   0.62060 
H          H       0.75970   0.02600   0.77405 
H          H       0.80160   0.99600   0.64140 
H          H       0.80850   0.93000   0.75415 
H          H       0.75940   0.95430   0.86395 
H          H       0.76420   0.91840   0.69215 
H          H       0.08120   0.63580   0.57200 
H          H       0.12000   0.62330   0.72410 
H          H       0.10510   0.66980   0.63835 
H          H       0.09930   0.20080   0.81925 
H          H       0.15260   0.78650   0.70500 
H          H       0.58010   0.13990   0.79680 
H          H       0.80040   0.14430   0.85240 
H          H       0.68800   0.36420   0.54745 
H          H       0.68810   0.36900   0.86580 
H          H       0.20120   0.91560   0.89420 
N          N       0.56270   0.85470   0.71280 
N          N       0.51250   0.55640   0.87635 
N          N       0.10630   0.37330   0.89060 
N          N       0.37350   0.45220   0.53845 
N          N       0.33680   0.70870   0.89930 
N          N       0.12560   0.55160   0.85785 
N          N       0.37030   0.68160   0.79055 
N          N       0.10520   0.51490   0.68130 
N          N       0.13220   0.52970   0.71160 
N          N       0.19390   0.54920   0.84285 
N          N       0.28160   0.78060   0.97755 
N          N       0.33800   0.77430   0.86425 
N          N       0.25760   0.00770   0.81615 
N          N       0.46320   0.06780   0.96855 
N          N       0.88100   0.52370   0.70255 
N          N       0.93800   0.24830   0.65510 
N          N       0.36880   0.02940   0.95505 
N          N       0.32850   0.03840   0.95710 
N          N       0.31650   0.02490   0.81960 
N          N       0.23890   0.06690   0.72590 
N          N       0.58340   0.31540   0.75880 
N          N       0.54870   0.32870   0.65105 
N          N       0.51600   0.36620   0.71045 
N          N       0.90440   0.38750   0.90490 
N          N       0.89910   0.35500   0.91070 
N          N       0.91940   0.32430   0.77935 
N          N       0.62570   0.24020   0.63610 
N          N       0.65900   0.26450   0.82410 
N          N       0.87960   0.28740   0.81495 
N          N       0.70630   0.02430   0.51915 
N          N       0.14410   0.60910   0.50180 
N          N       0.67630   0.91440   0.54715 
N          N       0.69750   0.93400   0.61045 
N          N       0.69360   0.96260   0.51890 
N          N       0.75590   0.97330   0.63735 
N          N       0.38270   0.64200   0.80495 
O          O       0.60790   0.90490   0.93270 
O          O       0.05680   0.47400   0.70915 
O          O       0.42050   0.57400   0.52095 
O          O       0.45960   0.44180   0.86580 
O          O       0.44790   0.00010   0.70125 
O          O       0.93360   0.44520   0.84175 
O          O       0.12250   0.19290   0.75260 
O          O       0.15860   0.76460   0.77040 
O          O       0.58980   0.13590   0.69125 
O          O       0.81300   0.14920   0.95715 
O          O       0.67180   0.38410   0.97075 
O          O       0.22030   0.92720   0.91175 
