data_crystal
 
_cell_length_a    14.48000
_cell_length_b    15.39000
_cell_length_c    6.56000
_cell_angle_alpha 90.00000
_cell_angle_beta  90.00000
_cell_angle_gamma 120.00000
 
_symmetry_space_group_name_Hall 'P 1'
_symmetry_space_group_name_H-M  'P 1'
 
loop_
_symmetry_equiv_pos_as_xyz
 'x,y,z' 
 
loop_
_atom_site_label
_atom_site_type_symbol
_atom_site_fract_x
_atom_site_fract_y
_atom_site_fract_z
N          N       0.45564   0.48134   0.25822 
C          C       0.62360   0.19877   0.25822 
C          C       0.75967   0.38328   0.25822 
C          C       0.57101   0.33184   0.25822 
C          C       0.86826   0.46218   0.25822 
H          H       0.88800   0.54377   0.25822 
C          C       0.59569   0.09257   0.25822 
H          H       0.66138   0.07227   0.25822 
N          N       0.50035   0.02392   0.25822 
C          C       0.48078   0.57458   0.25822 
H          H       0.56822   0.63598   0.25822 
N          N       0.03264   0.49612   0.25822 
C          C       0.23880   0.65645   0.25822 
O          O       0.18086   0.67606   0.25822 
C          C       0.42853   0.70818   0.25822 
C          C       0.29170   0.52263   0.25822 
O          O       0.27165   0.44635   0.25822 
O          O       0.46457   0.16887   0.25822 
N          N       0.51547   0.45238   0.25822 
C          C       0.34750   0.73495   0.25822 
C          C       0.21144   0.55044   0.25822 
C          C       0.40010   0.60188   0.25822 
C          C       0.10284   0.47154   0.25822 
H          H       0.08310   0.38995   0.25822 
C          C       0.37541   0.84115   0.25822 
H          H       0.30972   0.86145   0.25822 
N          N       0.47075   0.90980   0.25822 
C          C       0.49033   0.35914   0.25822 
H          H       0.40288   0.29774   0.25822 
N          N       0.93846   0.43760   0.25822 
C          C       0.73230   0.27727   0.25822 
O          O       0.79025   0.25766   0.25822 
C          C       0.54257   0.22554   0.25822 
C          C       0.67941   0.41109   0.25822 
O          O       0.69945   0.48737   0.25822 
O          O       0.50653   0.76485   0.25822 
H          H       0.56813   0.49003   0.37902 
H          H       0.92565   0.38575   0.37345 
H          H       0.45691   0.01663   0.36165 
H          H       0.40297   0.44369   0.37902 
H          H       0.04545   0.54797   0.37345 
H          H       0.51984   0.90059   0.15479 
N          N       0.45564   0.48134   0.75822 
C          C       0.62360   0.19877   0.75822 
C          C       0.75967   0.38328   0.75822 
C          C       0.57101   0.33184   0.75822 
C          C       0.86826   0.46218   0.75822 
H          H       0.88800   0.54377   0.75822 
C          C       0.59569   0.09257   0.75822 
H          H       0.66138   0.07227   0.75822 
N          N       0.50035   0.02392   0.75822 
C          C       0.48078   0.57458   0.75822 
H          H       0.56822   0.63598   0.75822 
N          N       0.03264   0.49612   0.75822 
C          C       0.23880   0.65645   0.75822 
O          O       0.18086   0.67606   0.75822 
C          C       0.42853   0.70818   0.75822 
C          C       0.29170   0.52263   0.75822 
O          O       0.27165   0.44635   0.75822 
O          O       0.46457   0.16887   0.75822 
N          N       0.51547   0.45238   0.75822 
C          C       0.34750   0.73495   0.75822 
C          C       0.21144   0.55044   0.75822 
C          C       0.40010   0.60188   0.75822 
C          C       0.10284   0.47154   0.75822 
H          H       0.08310   0.38995   0.75822 
C          C       0.37541   0.84115   0.75822 
H          H       0.30972   0.86145   0.75822 
N          N       0.47075   0.90980   0.75822 
C          C       0.49033   0.35914   0.75822 
H          H       0.40288   0.29774   0.75822 
N          N       0.93846   0.43760   0.75822 
C          C       0.73230   0.27727   0.75822 
O          O       0.79025   0.25766   0.75822 
C          C       0.54257   0.22554   0.75822 
C          C       0.67941   0.41109   0.75822 
O          O       0.69945   0.48737   0.75822 
O          O       0.50653   0.76485   0.75822 
H          H       0.56813   0.49003   0.87902 
H          H       0.92565   0.38575   0.87345 
H          H       0.45691   0.01663   0.86165 
H          H       0.40297   0.44369   0.87902 
H          H       0.04545   0.54797   0.87345 
H          H       0.51984   0.90059   0.65479 
