data_crystal
 
_cell_length_a    14.18000
_cell_length_b    15.27000
_cell_length_c    6.70000
_cell_angle_alpha 90.00000
_cell_angle_beta  90.00000
_cell_angle_gamma 120.00000
 
_space_group_name_Hall 'P 1'
_space_group_name_H-M_alt  'P 1'
 
loop_
_symmetry_equiv_pos_as_xyz
 'x,y,z' 
 
loop_
_atom_site_label
_atom_site_type_symbol
_atom_site_fract_x
_atom_site_fract_y
_atom_site_fract_z
N          N       0.48335   0.50332   0.23993 
C          C       0.65799   0.21751   0.23993 
C          C       0.79946   0.40413   0.23993 
C          C       0.60331   0.35211   0.23993 
C          C       0.91237   0.48395   0.23993 
H          H       0.93361   0.56649   0.23993 
C          C       0.62897   0.11008   0.23993 
H          H       0.69578   0.08929   0.23993 
N          N       0.52984   0.04064   0.23993 
C          C       0.50949   0.59763   0.23993 
N          N       0.04355   0.51827   0.23993 
C          C       0.25790   0.68045   0.23993 
H          H       0.19060   0.70060   0.23993 
C          C       0.45517   0.73277   0.23993 
C          C       0.31290   0.54509   0.23993 
H          H       0.29211   0.46267   0.23993 
H          H       0.48442   0.18281   0.23993 
N          N       0.54556   0.47403   0.23993 
C          C       0.37092   0.75985   0.23993 
C          C       0.22945   0.57322   0.23993 
C          C       0.42560   0.62525   0.23993 
C          C       0.11654   0.49341   0.23993 
C          C       0.39994   0.86727   0.23993 
N          N       0.49907   0.93671   0.23993 
C          C       0.51942   0.37972   0.23993 
H          H       0.43005   0.31808   0.23993 
N          N       0.98536   0.45908   0.23993 
C          C       0.77101   0.29690   0.23993 
H          H       0.83831   0.27676   0.23993 
C          C       0.57374   0.24458   0.23993 
C          C       0.71601   0.43226   0.23993 
H          H       0.73680   0.51468   0.23993 
H          H       0.54449   0.79455   0.23993 
H          H       0.33609   0.88659   0.23993 
H          H       0.59446   0.65655   0.23992 
H          H       0.09653   0.41456   0.23993 
N          N       0.48335   0.50332   0.73993 
C          C       0.65799   0.21751   0.73993 
C          C       0.79946   0.40413   0.73993 
C          C       0.60331   0.35211   0.73993 
C          C       0.91237   0.48395   0.73993 
H          H       0.93361   0.56649   0.73993 
C          C       0.62897   0.11008   0.73993 
H          H       0.69578   0.08929   0.73993 
N          N       0.52984   0.04064   0.73993 
C          C       0.50949   0.59763   0.73993 
N          N       0.04355   0.51827   0.73993 
C          C       0.25790   0.68045   0.73993 
H          H       0.19060   0.70060   0.73993 
C          C       0.45517   0.73277   0.73993 
C          C       0.31290   0.54509   0.73993 
H          H       0.29211   0.46267   0.73993 
H          H       0.48442   0.18281   0.73993 
N          N       0.54556   0.47403   0.73993 
C          C       0.37092   0.75985   0.73993 
C          C       0.22945   0.57322   0.73993 
C          C       0.42560   0.62525   0.73993 
C          C       0.11654   0.49341   0.73993 
C          C       0.39994   0.86727   0.73993 
N          N       0.49907   0.93671   0.73993 
C          C       0.51942   0.37972   0.73993 
H          H       0.43005   0.31808   0.73993 
N          N       0.98536   0.45908   0.73993 
C          C       0.77101   0.29690   0.73993 
H          H       0.83831   0.27676   0.73993 
C          C       0.57374   0.24458   0.73993 
C          C       0.71601   0.43226   0.73993 
H          H       0.73680   0.51468   0.73993 
H          H       0.54449   0.79455   0.73993 
H          H       0.33609   0.88659   0.73993 
H          H       0.59446   0.65655   0.73993 
H          H       0.09653   0.41456   0.73993 
