data_crystal
 
_cell_length_a    23.59000
_cell_length_b    23.59000
_cell_length_c    6.86000
_cell_angle_alpha 90.00000
_cell_angle_beta  90.00000
_cell_angle_gamma 120.00000
 
_space_group_name_Hall 'P 1'
_space_group_name_H-M_alt  'P 1'
 
loop_
_symmetry_equiv_pos_as_xyz
 'x,y,z' 
 
loop_
_atom_site_label
_atom_site_type_symbol
_atom_site_fract_x
_atom_site_fract_y
_atom_site_fract_z
C          C       0.13497   0.08281   0.45210 
C          C       0.91719   0.05216   0.45210 
C          C       0.94784   0.86503   0.45210 
C          C       0.17571   0.06385   0.37923 
C          C       0.93615   0.11186   0.37923 
C          C       0.88814   0.82429   0.37923 
C          C       0.24035   0.10288   0.38891 
C          C       0.89712   0.13747   0.38891 
C          C       0.86253   0.75965   0.38891 
C          C       0.26624   0.16249   0.46582 
C          C       0.83751   0.10375   0.46582 
C          C       0.89625   0.73376   0.46582 
C          C       0.22612   0.18227   0.03710 
C          C       0.81773   0.04385   0.03710 
C          C       0.95615   0.77388   0.03710 
C          C       0.16148   0.14274   0.03169 
C          C       0.85726   0.01874   0.03169 
C          C       0.98126   0.83852   0.03169 
N          N       0.33308   0.19993   0.47549 
N          N       0.80007   0.13315   0.47549 
N          N       0.86685   0.66692   0.47549 
C          C       0.36519   0.25886   0.01615 
C          C       0.74114   0.10633   0.01615 
C          C       0.89367   0.63481   0.01615 
C          C       0.43348   0.29014   0.02705 
C          C       0.70986   0.14334   0.02705 
C          C       0.85666   0.56652   0.02705 
C          C       0.06560   0.04026   0.44783 
C          C       0.95974   0.02534   0.44783 
C          C       0.97466   0.93440   0.44783 
C          C       0.02495   0.06458   0.44734 
C          C       0.93542   0.96037   0.44734 
C          C       0.03963   0.97505   0.44734 
S          S       0.47481   0.25278   0.48818 
S          S       0.74722   0.22203   0.48818 
S          S       0.77797   0.52519   0.48818 
C          C       0.54235   0.32141   0.03581 
C          C       0.67859   0.22094   0.03581 
C          C       0.77906   0.45765   0.03581 
C          C       0.53186   0.36990   0.08004 
C          C       0.63010   0.16196   0.08004 
C          C       0.83804   0.46814   0.08004 
C          C       0.46981   0.35197   0.07437 
C          C       0.64803   0.11784   0.07437 
C          C       0.88216   0.53019   0.07437 
C          C       0.60515   0.32704   0.03291 
C          C       0.67296   0.27811   0.03291 
C          C       0.72189   0.39485   0.03291 
C          C       0.61096   0.27359   0.03157 
C          C       0.72641   0.33737   0.03157 
C          C       0.66263   0.38904   0.03157 
H          H       0.15533   0.01429   0.30865 
H          H       0.98571   0.14104   0.30865 
H          H       0.85896   0.84467   0.30865 
H          H       0.27385   0.08553   0.33153 
H          H       0.91447   0.18832   0.33153 
H          H       0.81168   0.72615   0.33153 
H          H       0.24699   0.23267   0.10225 
H          H       0.76733   0.01432   0.10225 
H          H       0.98568   0.75301   0.10225 
H          H       0.12893   0.16031   0.09530 
H          H       0.83969   0.96862   0.09530 
H          H       0.03138   0.87107   0.09530 
H          H       0.33942   0.28740   0.04446 
H          H       0.71260   0.05202   0.04446 
H          H       0.94798   0.66058   0.04446 
H          H       0.04538   0.11917   0.44652 
H          H       0.88083   0.92621   0.44652 
H          H       0.07379   0.95462   0.44652 
H          H       0.57433   0.41969   0.11682 
H          H       0.58031   0.15464   0.11682 
H          H       0.84536   0.42567   0.11682 
H          H       0.44629   0.38254   0.10426 
H          H       0.61746   0.06375   0.10426 
H          H       0.93625   0.55371   0.10426 
H          H       0.56584   0.22356   0.02933 
H          H       0.77644   0.34228   0.02933 
H          H       0.65772   0.43416   0.02933 
C          C       0.13497   0.08281   0.95210 
C          C       0.91719   0.05216   0.95210 
C          C       0.94784   0.86503   0.95210 
C          C       0.17571   0.06385   0.87923 
C          C       0.93615   0.11186   0.87923 
C          C       0.88814   0.82429   0.87923 
C          C       0.24035   0.10288   0.88891 
C          C       0.89712   0.13747   0.88891 
C          C       0.86253   0.75965   0.88891 
C          C       0.26624   0.16249   0.96582 
C          C       0.83751   0.10375   0.96582 
C          C       0.89625   0.73376   0.96582 
C          C       0.22612   0.18227   0.53710 
C          C       0.81773   0.04385   0.53710 
C          C       0.95615   0.77388   0.53710 
C          C       0.16148   0.14274   0.53169 
C          C       0.85726   0.01874   0.53169 
C          C       0.98126   0.83852   0.53169 
N          N       0.33308   0.19993   0.97549 
N          N       0.80007   0.13315   0.97549 
N          N       0.86685   0.66692   0.97549 
C          C       0.36519   0.25886   0.51615 
C          C       0.74114   0.10633   0.51615 
C          C       0.89367   0.63481   0.51615 
C          C       0.43348   0.29014   0.52704 
C          C       0.70986   0.14334   0.52704 
C          C       0.85666   0.56652   0.52704 
C          C       0.06560   0.04026   0.94783 
C          C       0.95974   0.02534   0.94783 
C          C       0.97466   0.93440   0.94783 
C          C       0.02495   0.06458   0.94734 
C          C       0.93542   0.96037   0.94734 
C          C       0.03963   0.97505   0.94734 
S          S       0.47481   0.25278   0.98818 
S          S       0.74722   0.22203   0.98818 
S          S       0.77797   0.52519   0.98818 
C          C       0.54235   0.32141   0.53581 
C          C       0.67859   0.22094   0.53581 
C          C       0.77906   0.45765   0.53581 
C          C       0.53186   0.36990   0.58004 
C          C       0.63010   0.16196   0.58004 
C          C       0.83804   0.46814   0.58004 
C          C       0.46981   0.35197   0.57437 
C          C       0.64803   0.11784   0.57437 
C          C       0.88216   0.53019   0.57437 
C          C       0.60515   0.32704   0.53292 
C          C       0.67296   0.27811   0.53292 
C          C       0.72189   0.39485   0.53292 
C          C       0.61096   0.27359   0.53158 
C          C       0.72641   0.33737   0.53158 
C          C       0.66263   0.38904   0.53158 
H          H       0.15533   0.01429   0.80864 
H          H       0.98571   0.14104   0.80864 
H          H       0.85896   0.84467   0.80864 
H          H       0.27385   0.08553   0.83153 
H          H       0.91447   0.18832   0.83153 
H          H       0.81168   0.72615   0.83153 
H          H       0.24699   0.23267   0.60225 
H          H       0.76733   0.01432   0.60225 
H          H       0.98568   0.75301   0.60225 
H          H       0.12893   0.16031   0.59530 
H          H       0.83969   0.96862   0.59530 
H          H       0.03138   0.87107   0.59530 
H          H       0.33942   0.28740   0.54446 
H          H       0.71260   0.05202   0.54446 
H          H       0.94798   0.66058   0.54446 
H          H       0.04538   0.11917   0.94652 
H          H       0.88083   0.92621   0.94652 
H          H       0.07379   0.95462   0.94652 
H          H       0.57433   0.41969   0.61682 
H          H       0.58031   0.15464   0.61682 
H          H       0.84536   0.42567   0.61682 
H          H       0.44629   0.38254   0.60426 
H          H       0.61746   0.06375   0.60426 
H          H       0.93625   0.55371   0.60426 
H          H       0.56584   0.22356   0.52933 
H          H       0.77644   0.34228   0.52933 
H          H       0.65772   0.43416   0.52933 
