data_crystal
 
_cell_length_a    20.18000
_cell_length_b    20.18000
_cell_length_c    7.60000
_cell_angle_alpha 90.00000
_cell_angle_beta  90.00000
_cell_angle_gamma 120.00000
 
_space_group_name_Hall 'P 1'
_space_group_name_H-M_alt  'P 1'
 
loop_
_symmetry_equiv_pos_as_xyz
 'x,y,z' 
 
loop_
_atom_site_label
_atom_site_type_symbol
_atom_site_fract_x
_atom_site_fract_y
_atom_site_fract_z
C          C       0.07984   0.04448   0.38996 
C          C       0.95552   0.03536   0.38996 
C          C       0.96464   0.92016   0.38996 
C          C       0.12135   0.01897   0.47704 
C          C       0.98103   0.10238   0.47704 
C          C       0.89762   0.87865   0.47704 
C          C       0.19566   0.06392   0.00630 
C          C       0.93608   0.13174   0.00630 
C          C       0.86826   0.80434   0.00630 
C          C       0.23041   0.13687   0.45711 
C          C       0.86313   0.09354   0.45711 
C          C       0.90646   0.76959   0.45711 
C          C       0.19181   0.16303   0.36284 
C          C       0.83697   0.02878   0.36284 
C          C       0.97122   0.80819   0.36284 
C          C       0.11804   0.11658   0.32536 
C          C       0.88342   0.00146   0.32536 
C          C       0.99854   0.88196   0.32536 
N          N       0.30374   0.18294   0.01346 
N          N       0.81706   0.12080   0.01346 
N          N       0.87920   0.69626   0.01346 
C          C       0.33345   0.25166   0.05118 
C          C       0.74834   0.08179   0.05118 
C          C       0.91821   0.66655   0.05118 
C          C       0.40711   0.28823   0.12325 
C          C       0.71177   0.11888   0.12325 
C          C       0.88112   0.59289   0.12325 
S          S       0.45645   0.24479   0.13806 
S          S       0.75521   0.21166   0.13806 
S          S       0.78834   0.54355   0.13806 
C          C       0.52570   0.32166   0.23123 
C          C       0.67834   0.20404   0.23123 
C          C       0.79596   0.47430   0.23123 
C          C       0.50964   0.37733   0.25123 
C          C       0.62267   0.13231   0.25123 
C          C       0.86769   0.49036   0.25123 
C          C       0.44158   0.35800   0.18903 
C          C       0.64200   0.08358   0.18903 
C          C       0.91642   0.55842   0.18903 
C          C       0.59745   0.32790   0.26800 
C          C       0.67210   0.26955   0.26800 
C          C       0.73045   0.40255   0.26800 
C          C       0.60361   0.26478   0.27172 
C          C       0.73522   0.33883   0.27172 
C          C       0.66117   0.39639   0.27172 
H          H       0.09715   0.96484   0.02757 
H          H       0.03516   0.13231   0.02757 
H          H       0.86769   0.90285   0.02757 
H          H       0.22529   0.04301   0.07808 
H          H       0.95699   0.18228   0.07808 
H          H       0.81772   0.77471   0.07808 
H          H       0.21818   0.21916   0.31951 
H          H       0.78084   0.99902   0.31951 
H          H       0.00098   0.78182   0.31951 
H          H       0.09016   0.13950   0.25741 
H          H       0.86050   0.95066   0.25741 
H          H       0.04934   0.90984   0.25741 
H          H       0.30291   0.28016   0.04322 
H          H       0.71984   0.02275   0.04322 
H          H       0.97725   0.69709   0.04322 
H          H       0.54544   0.42999   0.30880 
H          H       0.57001   0.11545   0.30880 
H          H       0.88455   0.45456   0.30880 
H          H       0.41810   0.39322   0.19233 
H          H       0.60678   0.02488   0.19233 
H          H       0.97512   0.58190   0.19233 
H          H       0.55487   0.21182   0.26466 
H          H       0.78818   0.34305   0.26466 
H          H       0.65695   0.44513   0.26466 
N          N       0.00000   0.00000   0.37850 
C          C       0.07984   0.04448   0.88996 
C          C       0.95552   0.03536   0.88996 
C          C       0.96464   0.92016   0.88996 
C          C       0.12135   0.01897   0.97705 
C          C       0.98103   0.10238   0.97705 
C          C       0.89762   0.87865   0.97705 
C          C       0.19566   0.06392   0.50630 
C          C       0.93608   0.13174   0.50630 
C          C       0.86826   0.80434   0.50630 
C          C       0.23041   0.13687   0.95711 
C          C       0.86313   0.09354   0.95711 
C          C       0.90646   0.76959   0.95711 
C          C       0.19181   0.16303   0.86284 
C          C       0.83697   0.02878   0.86284 
C          C       0.97122   0.80819   0.86284 
C          C       0.11804   0.11658   0.82536 
C          C       0.88342   0.00146   0.82536 
C          C       0.99854   0.88196   0.82536 
N          N       0.30374   0.18294   0.51346 
N          N       0.81706   0.12080   0.51346 
N          N       0.87920   0.69626   0.51346 
C          C       0.33345   0.25166   0.55118 
C          C       0.74834   0.08179   0.55118 
C          C       0.91821   0.66655   0.55118 
C          C       0.40711   0.28823   0.62325 
C          C       0.71177   0.11888   0.62325 
C          C       0.88112   0.59289   0.62325 
S          S       0.45645   0.24479   0.63806 
S          S       0.75521   0.21166   0.63806 
S          S       0.78834   0.54355   0.63806 
C          C       0.52570   0.32166   0.73123 
C          C       0.67834   0.20404   0.73123 
C          C       0.79596   0.47430   0.73123 
C          C       0.50964   0.37733   0.75123 
C          C       0.62267   0.13231   0.75123 
C          C       0.86769   0.49036   0.75123 
C          C       0.44158   0.35800   0.68903 
C          C       0.64200   0.08358   0.68903 
C          C       0.91642   0.55842   0.68903 
C          C       0.59745   0.32790   0.76801 
C          C       0.67210   0.26955   0.76801 
C          C       0.73045   0.40255   0.76801 
C          C       0.60361   0.26478   0.77172 
C          C       0.73522   0.33883   0.77172 
C          C       0.66117   0.39639   0.77172 
H          H       0.09715   0.96484   0.52757 
H          H       0.03516   0.13231   0.52757 
H          H       0.86769   0.90285   0.52757 
H          H       0.22529   0.04301   0.57808 
H          H       0.95699   0.18228   0.57808 
H          H       0.81772   0.77471   0.57808 
H          H       0.21818   0.21916   0.81951 
H          H       0.78084   0.99902   0.81951 
H          H       0.00098   0.78182   0.81951 
H          H       0.09016   0.13950   0.75741 
H          H       0.86050   0.95066   0.75741 
H          H       0.04934   0.90984   0.75741 
H          H       0.30291   0.28016   0.54322 
H          H       0.71984   0.02275   0.54322 
H          H       0.97725   0.69709   0.54322 
H          H       0.54544   0.42999   0.80880 
H          H       0.57001   0.11545   0.80880 
H          H       0.88455   0.45456   0.80880 
H          H       0.41810   0.39322   0.69233 
H          H       0.60678   0.02488   0.69233 
H          H       0.97512   0.58190   0.69233 
H          H       0.55487   0.21182   0.76466 
H          H       0.78818   0.34305   0.76466 
H          H       0.65695   0.44513   0.76466 
N          N       0.00000   0.00000   0.87850 
