data_crystal
 
_cell_length_a    24.43000
_cell_length_b    24.43000
_cell_length_c    6.46000
_cell_angle_alpha 90.00000
_cell_angle_beta  90.00000
_cell_angle_gamma 120.00000
 
_space_group_name_Hall 'P 1'
_space_group_name_H-M_alt  'P 1'
 
loop_
_symmetry_equiv_pos_as_xyz
 'x,y,z' 
 
loop_
_atom_site_label
_atom_site_type_symbol
_atom_site_fract_x
_atom_site_fract_y
_atom_site_fract_z
C          C       0.13728   0.08954   0.29809 
C          C       0.91046   0.04774   0.29809 
C          C       0.95226   0.86272   0.29809 
C          C       0.18264   0.06694   0.29092 
C          C       0.93306   0.11570   0.29092 
C          C       0.88430   0.81736   0.29092 
C          C       0.24792   0.10782   0.34037 
C          C       0.89218   0.14010   0.34037 
C          C       0.85990   0.75208   0.34037 
C          C       0.26905   0.17160   0.39895 
C          C       0.82840   0.09745   0.39895 
C          C       0.90255   0.73095   0.39895 
C          C       0.22493   0.19590   0.39658 
C          C       0.80410   0.02903   0.39658 
C          C       0.97097   0.77507   0.39658 
C          C       0.15963   0.15513   0.34640 
C          C       0.84487   0.00450   0.34640 
C          C       0.99550   0.84037   0.34640 
N          N       0.33490   0.20874   0.46325 
N          N       0.79126   0.12616   0.46325 
N          N       0.87384   0.66510   0.46325 
C          C       0.35982   0.26314   0.04853 
C          C       0.73686   0.09668   0.04853 
C          C       0.90332   0.64018   0.04853 
C          C       0.42777   0.29281   0.10915 
C          C       0.70719   0.13496   0.10915 
C          C       0.86504   0.57223   0.10915 
C          C       0.06616   0.04324   0.27259 
C          C       0.95676   0.02292   0.27259 
C          C       0.97708   0.93384   0.27259 
N          N       0.02275   0.06565   0.27333 
N          N       0.93435   0.95710   0.27333 
N          N       0.04290   0.97725   0.27333 
S          S       0.47426   0.25589   0.08237 
S          S       0.74411   0.21837   0.08237 
S          S       0.78163   0.52574   0.08237 
C          C       0.53820   0.32187   0.18096 
C          C       0.67813   0.21633   0.18096 
C          C       0.78367   0.46180   0.18096 
C          C       0.52299   0.36913   0.23288 
C          C       0.63087   0.15386   0.23288 
C          C       0.84614   0.47701   0.23288 
C          C       0.45964   0.35228   0.19195 
C          C       0.64772   0.10736   0.19195 
C          C       0.89264   0.54036   0.19195 
C          C       0.60394   0.32789   0.19923 
C          C       0.67211   0.27605   0.19923 
C          C       0.72395   0.39606   0.19923 
C          C       0.60991   0.27116   0.20044 
C          C       0.72884   0.33875   0.20044 
C          C       0.66125   0.39009   0.20044 
H          H       0.16726   0.01697   0.25229 
H          H       0.98303   0.15029   0.25229 
H          H       0.84971   0.83274   0.25229 
H          H       0.28171   0.08891   0.33886 
H          H       0.91109   0.19280   0.33886 
H          H       0.80720   0.71829   0.33886 
H          H       0.23983   0.24558   0.43551 
H          H       0.75442   0.99425   0.43551 
H          H       0.00575   0.76017   0.43551 
H          H       0.12609   0.17429   0.35203 
H          H       0.82571   0.95180   0.35203 
H          H       0.04820   0.87391   0.35203 
H          H       0.33117   0.28617   0.08042 
H          H       0.71383   0.04500   0.08042 
H          H       0.95500   0.66883   0.08042 
H          H       0.55624   0.41387   0.29935 
H          H       0.58613   0.14237   0.29935 
H          H       0.85763   0.44376   0.29935 
H          H       0.43771   0.38227   0.22111 
H          H       0.61773   0.05544   0.22111 
H          H       0.94456   0.56229   0.22111 
H          H       0.56597   0.22308   0.19548 
H          H       0.77692   0.34289   0.19548 
H          H       0.65711   0.43403   0.19548 
C          C       0.13728   0.08954   0.79810 
C          C       0.91046   0.04774   0.79810 
C          C       0.95226   0.86272   0.79810 
C          C       0.18264   0.06694   0.79092 
C          C       0.93306   0.11570   0.79092 
C          C       0.88430   0.81736   0.79092 
C          C       0.24792   0.10782   0.84037 
C          C       0.89218   0.14010   0.84037 
C          C       0.85990   0.75208   0.84037 
C          C       0.26905   0.17160   0.89895 
C          C       0.82840   0.09745   0.89895 
C          C       0.90255   0.73095   0.89895 
C          C       0.22493   0.19590   0.89658 
C          C       0.80410   0.02903   0.89658 
C          C       0.97097   0.77507   0.89658 
C          C       0.15963   0.15513   0.84640 
C          C       0.84487   0.00450   0.84640 
C          C       0.99550   0.84037   0.84640 
N          N       0.33490   0.20874   0.96325 
N          N       0.79126   0.12616   0.96325 
N          N       0.87384   0.66510   0.96325 
C          C       0.35982   0.26314   0.54853 
C          C       0.73686   0.09668   0.54853 
C          C       0.90332   0.64018   0.54853 
C          C       0.42777   0.29281   0.60914 
C          C       0.70719   0.13496   0.60914 
C          C       0.86504   0.57223   0.60914 
C          C       0.06616   0.04324   0.77259 
C          C       0.95676   0.02292   0.77259 
C          C       0.97708   0.93384   0.77259 
N          N       0.02275   0.06565   0.77333 
N          N       0.93435   0.95710   0.77333 
N          N       0.04290   0.97725   0.77333 
S          S       0.47426   0.25589   0.58237 
S          S       0.74411   0.21837   0.58237 
S          S       0.78163   0.52574   0.58237 
C          C       0.53820   0.32187   0.68097 
C          C       0.67813   0.21633   0.68097 
C          C       0.78367   0.46180   0.68097 
C          C       0.52299   0.36913   0.73288 
C          C       0.63087   0.15386   0.73288 
C          C       0.84614   0.47701   0.73288 
C          C       0.45964   0.35228   0.69195 
C          C       0.64772   0.10736   0.69195 
C          C       0.89264   0.54036   0.69195 
C          C       0.60394   0.32789   0.69922 
C          C       0.67211   0.27605   0.69922 
C          C       0.72395   0.39606   0.69922 
C          C       0.60991   0.27116   0.70044 
C          C       0.72884   0.33875   0.70044 
C          C       0.66125   0.39009   0.70044 
H          H       0.16726   0.01697   0.75229 
H          H       0.98303   0.15029   0.75229 
H          H       0.84971   0.83274   0.75229 
H          H       0.28171   0.08891   0.83886 
H          H       0.91109   0.19280   0.83886 
H          H       0.80720   0.71829   0.83886 
H          H       0.23983   0.24558   0.93551 
H          H       0.75442   0.99425   0.93551 
H          H       0.00575   0.76017   0.93551 
H          H       0.12609   0.17429   0.85203 
H          H       0.82571   0.95180   0.85203 
H          H       0.04820   0.87391   0.85203 
H          H       0.33117   0.28617   0.58042 
H          H       0.71383   0.04500   0.58042 
H          H       0.95500   0.66883   0.58042 
H          H       0.55624   0.41387   0.79935 
H          H       0.58613   0.14237   0.79935 
H          H       0.85763   0.44376   0.79935 
H          H       0.43771   0.38227   0.72111 
H          H       0.61773   0.05544   0.72111 
H          H       0.94456   0.56229   0.72111 
H          H       0.56597   0.22308   0.69548 
H          H       0.77692   0.34289   0.69548 
H          H       0.65711   0.43403   0.69548 
