data_crystal
 
_cell_length_a    45.47050
_cell_length_b    45.47050
_cell_length_c    9.36000
_cell_angle_alpha 90.00000
_cell_angle_beta  90.00000
_cell_angle_gamma 120.00000
 
_symmetry_space_group_name_Hall 'P 1'
_symmetry_space_group_name_H-M  'P 1'
 
loop_
_symmetry_equiv_pos_as_xyz
 'x,y,z' 
 
loop_
_atom_site_label
_atom_site_type_symbol
_atom_site_fract_x
_atom_site_fract_y
_atom_site_fract_z
C          C       0.29785   0.64416   0.28576 
C          C       0.35584   0.65369   0.28576 
C          C       0.34631   0.70215   0.28576 
C          C       0.70215   0.35584   0.28576 
C          C       0.64416   0.34631   0.28576 
C          C       0.65369   0.29785   0.28576 
C          C       0.32051   0.63163   0.28623 
C          C       0.36837   0.68888   0.28623 
C          C       0.31112   0.67949   0.28623 
C          C       0.67949   0.36837   0.28623 
C          C       0.63163   0.31112   0.28623 
C          C       0.68888   0.32051   0.28623 
C          C       0.26039   0.62041   0.28258 
C          C       0.37959   0.63998   0.28258 
C          C       0.36002   0.73961   0.28258 
C          C       0.73961   0.37959   0.28258 
C          C       0.62041   0.36002   0.28258 
C          C       0.63998   0.26039   0.28258 
C          C       0.37089   0.60970   0.20916 
C          C       0.39030   0.76119   0.20916 
C          C       0.23881   0.62911   0.20916 
C          C       0.62911   0.39030   0.20916 
C          C       0.60970   0.23881   0.20916 
C          C       0.76119   0.37089   0.20916 
C          C       0.39295   0.59617   0.20669 
C          C       0.40383   0.79678   0.20669 
C          C       0.20322   0.60705   0.20669 
C          C       0.60705   0.40383   0.20669 
C          C       0.59617   0.20322   0.20669 
C          C       0.79678   0.39295   0.20669 
C          C       0.42467   0.61413   0.27600 
C          C       0.38587   0.81054   0.27600 
C          C       0.18946   0.57533   0.27600 
C          C       0.57533   0.38587   0.27600 
C          C       0.61413   0.18946   0.27600 
C          C       0.81054   0.42467   0.27600 
C          C       0.43362   0.64469   0.34627 
C          C       0.35531   0.78893   0.34627 
C          C       0.21107   0.56638   0.34627 
C          C       0.56638   0.35531   0.34627 
C          C       0.64469   0.21107   0.34627 
C          C       0.78893   0.43362   0.34627 
C          C       0.41121   0.65720   0.35148 
C          C       0.34280   0.75401   0.35148 
C          C       0.24599   0.58879   0.35148 
C          C       0.58879   0.34280   0.35148 
C          C       0.65720   0.24599   0.35148 
C          C       0.75401   0.41121   0.35148 
C          C       0.44900   0.60146   0.27687 
C          C       0.39854   0.84754   0.27687 
C          C       0.15246   0.55100   0.27687 
C          C       0.55100   0.39854   0.27687 
C          C       0.60146   0.15246   0.27687 
C          C       0.84754   0.44900   0.27687 
C          C       0.45270   0.52506   0.32968 
C          C       0.47494   0.92764   0.32968 
C          C       0.07236   0.54730   0.32968 
C          C       0.54730   0.47494   0.32968 
C          C       0.52506   0.07236   0.32968 
C          C       0.92764   0.45270   0.32968 
C          C       0.47763   0.51309   0.33261 
C          C       0.48691   0.96454   0.33261 
C          C       0.03546   0.52237   0.33261 
C          C       0.52237   0.48691   0.33261 
C          C       0.51309   0.03546   0.33261 
C          C       0.96454   0.47763   0.33261 
C          C       0.46502   0.47795   0.33447 
C          C       0.52205   0.98707   0.33447 
C          C       0.01293   0.53498   0.33447 
C          C       0.53498   0.52205   0.33447 
C          C       0.47795   0.01293   0.33447 
C          C       0.98707   0.46502   0.33447 
C          C       0.48696   0.46440   0.33746 
C          C       0.53560   0.02256   0.33746 
C          C       0.97744   0.51304   0.33746 
C          C       0.51304   0.53560   0.33746 
C          C       0.46440   0.97744   0.33746 
C          C       0.02256   0.48696   0.33746 
H          H       0.31060   0.60456   0.28604 
H          H       0.39544   0.70604   0.28604 
H          H       0.29396   0.68940   0.28604 
H          H       0.68940   0.39544   0.28604 
H          H       0.60456   0.29396   0.28604 
H          H       0.70604   0.31060   0.28604 
H          H       0.34748   0.59759   0.14948 
H          H       0.40241   0.74989   0.14948 
H          H       0.25011   0.65252   0.14948 
H          H       0.65252   0.40241   0.14948 
H          H       0.59759   0.25011   0.14948 
H          H       0.74989   0.34748   0.14948 
O          O       0.38542   0.56635   0.13103 
O          O       0.43365   0.81907   0.13103 
O          O       0.18093   0.61458   0.13103 
O          O       0.61458   0.43365   0.13103 
O          O       0.56635   0.18093   0.13103 
O          O       0.81907   0.38542   0.13103 
H          H       0.45755   0.65820   0.40272 
H          H       0.34180   0.79935   0.40272 
H          H       0.20065   0.54245   0.40272 
H          H       0.54245   0.34180   0.40272 
H          H       0.65820   0.20065   0.40272 
H          H       0.79935   0.45755   0.40272 
H          H       0.41820   0.67978   0.41389 
H          H       0.32022   0.73842   0.41389 
H          H       0.26158   0.58180   0.41389 
H          H       0.58180   0.32022   0.41389 
H          H       0.67978   0.26158   0.41389 
H          H       0.73842   0.41820   0.41389 
O          O       0.47486   0.42917   0.34560 
O          O       0.57083   0.04569   0.34560 
O          O       0.95431   0.52514   0.34560 
O          O       0.52514   0.57083   0.34560 
O          O       0.42917   0.95431   0.34560 
O          O       0.04569   0.47486   0.34560 
H          H       0.43781   0.46132   0.33293 
H          H       0.53868   0.97649   0.33293 
H          H       0.02351   0.56219   0.33293 
H          H       0.56219   0.53868   0.33293 
H          H       0.46132   0.02351   0.33293 
H          H       0.97649   0.43781   0.33293 
O          O       0.47913   0.62151   0.25867 
O          O       0.37849   0.85762   0.25867 
O          O       0.14238   0.52087   0.25867 
O          O       0.52087   0.37849   0.25867 
O          O       0.62151   0.14238   0.25867 
O          O       0.85762   0.47913   0.25867 
C          C       0.35125   0.54426   0.08615 
C          C       0.45574   0.80699   0.08615 
C          C       0.19301   0.64875   0.08615 
C          C       0.64875   0.45574   0.08615 
C          C       0.54426   0.19301   0.08615 
C          C       0.80699   0.35125   0.08615 
N          N       0.43835   0.56797   0.30177 
N          N       0.43203   0.87038   0.30177 
N          N       0.12962   0.56165   0.30177 
N          N       0.56165   0.43203   0.30177 
N          N       0.56797   0.12962   0.30177 
N          N       0.87038   0.43835   0.30177 
N          N       0.46188   0.55655   0.30501 
N          N       0.44345   0.90533   0.30501 
N          N       0.09467   0.53812   0.30501 
N          N       0.53812   0.44345   0.30501 
N          N       0.55655   0.09467   0.30501 
N          N       0.90533   0.46188   0.30501 
H          H       0.42603   0.50679   0.34575 
H          H       0.49321   0.91924   0.34575 
H          H       0.08076   0.57397   0.34575 
H          H       0.57397   0.49321   0.34575 
H          H       0.50679   0.08076   0.34575 
H          H       0.91924   0.42603   0.34575 
H          H       0.34968   0.52136   0.03662 
H          H       0.47864   0.82832   0.03662 
H          H       0.17168   0.65032   0.03662 
H          H       0.65032   0.47864   0.03662 
H          H       0.52136   0.17168   0.03662 
H          H       0.82832   0.34968   0.03662 
H          H       0.34344   0.55667   0.00462 
H          H       0.44333   0.78677   0.00462 
H          H       0.21323   0.65656   0.00462 
H          H       0.65656   0.44333   0.00462 
H          H       0.55667   0.21323   0.00462 
H          H       0.78677   0.34344   0.00462 
H          H       0.33368   0.53605   0.17880 
H          H       0.46395   0.79763   0.17880 
H          H       0.20237   0.66632   0.17880 
H          H       0.66632   0.46395   0.17880 
H          H       0.53605   0.20237   0.17880 
H          H       0.79763   0.33368   0.17880 
H          H       0.41280   0.55098   0.32398 
H          H       0.44902   0.86182   0.32398 
H          H       0.13818   0.58720   0.32398 
H          H       0.58720   0.44902   0.32398 
H          H       0.55098   0.13818   0.32398 
H          H       0.86182   0.41280   0.32398 
C          C       0.55885   0.59241   0.39689 
C          C       0.40759   0.96644   0.39689 
C          C       0.03356   0.44115   0.39689 
C          C       0.44115   0.40759   0.39689 
C          C       0.59241   0.03356   0.39689 
C          C       0.96644   0.55885   0.39689 
H          H       0.57796   0.59453   0.31785 
H          H       0.40547   0.98343   0.31785 
H          H       0.01657   0.42204   0.31785 
H          H       0.42204   0.40547   0.31785 
H          H       0.59453   0.01657   0.31785 
H          H       0.98343   0.57796   0.31785 
H          H       0.56270   0.58279   0.49985 
H          H       0.41721   0.97991   0.49985 
H          H       0.02009   0.43730   0.49985 
H          H       0.43730   0.41721   0.49985 
H          H       0.58279   0.02009   0.49985 
H          H       0.97991   0.56270   0.49985 
H          H       0.56263   0.61820   0.41439 
H          H       0.38180   0.94443   0.41439 
H          H       0.05557   0.43737   0.41439 
H          H       0.43737   0.38180   0.41439 
H          H       0.61820   0.05557   0.41439 
H          H       0.94443   0.56263   0.41439 
C          C       0.29785   0.64416   0.78576 
C          C       0.35584   0.65369   0.78576 
C          C       0.34631   0.70215   0.78576 
C          C       0.70215   0.35584   0.78576 
C          C       0.64416   0.34631   0.78576 
C          C       0.65369   0.29785   0.78576 
C          C       0.32051   0.63163   0.78622 
C          C       0.36837   0.68888   0.78622 
C          C       0.31112   0.67949   0.78622 
C          C       0.67949   0.36837   0.78622 
C          C       0.63163   0.31112   0.78622 
C          C       0.68888   0.32051   0.78622 
C          C       0.26039   0.62041   0.78258 
C          C       0.37959   0.63998   0.78258 
C          C       0.36002   0.73961   0.78258 
C          C       0.73961   0.37959   0.78258 
C          C       0.62041   0.36002   0.78258 
C          C       0.63998   0.26039   0.78258 
C          C       0.37089   0.60970   0.70916 
C          C       0.39030   0.76119   0.70916 
C          C       0.23881   0.62911   0.70916 
C          C       0.62911   0.39030   0.70916 
C          C       0.60970   0.23881   0.70916 
C          C       0.76119   0.37089   0.70916 
C          C       0.39295   0.59617   0.70669 
C          C       0.40383   0.79678   0.70669 
C          C       0.20322   0.60705   0.70669 
C          C       0.60705   0.40383   0.70669 
C          C       0.59617   0.20322   0.70669 
C          C       0.79678   0.39295   0.70669 
C          C       0.42467   0.61413   0.77600 
C          C       0.38587   0.81054   0.77600 
C          C       0.18946   0.57533   0.77600 
C          C       0.57533   0.38587   0.77600 
C          C       0.61413   0.18946   0.77600 
C          C       0.81054   0.42467   0.77600 
C          C       0.43362   0.64469   0.84627 
C          C       0.35531   0.78893   0.84627 
C          C       0.21107   0.56638   0.84627 
C          C       0.56638   0.35531   0.84627 
C          C       0.64469   0.21107   0.84627 
C          C       0.78893   0.43362   0.84627 
C          C       0.41121   0.65720   0.85148 
C          C       0.34280   0.75401   0.85148 
C          C       0.24599   0.58879   0.85148 
C          C       0.58879   0.34280   0.85148 
C          C       0.65720   0.24599   0.85148 
C          C       0.75401   0.41121   0.85148 
C          C       0.44900   0.60146   0.77687 
C          C       0.39854   0.84754   0.77687 
C          C       0.15246   0.55100   0.77687 
C          C       0.55100   0.39854   0.77687 
C          C       0.60146   0.15246   0.77687 
C          C       0.84754   0.44900   0.77687 
C          C       0.45270   0.52506   0.82968 
C          C       0.47494   0.92764   0.82968 
C          C       0.07236   0.54730   0.82968 
C          C       0.54730   0.47494   0.82968 
C          C       0.52506   0.07236   0.82968 
C          C       0.92764   0.45270   0.82968 
C          C       0.47763   0.51309   0.83261 
C          C       0.48691   0.96454   0.83261 
C          C       0.03546   0.52237   0.83261 
C          C       0.52237   0.48691   0.83261 
C          C       0.51309   0.03546   0.83261 
C          C       0.96454   0.47763   0.83261 
C          C       0.46502   0.47795   0.83447 
C          C       0.52205   0.98707   0.83447 
C          C       0.01293   0.53498   0.83447 
C          C       0.53498   0.52205   0.83447 
C          C       0.47795   0.01293   0.83447 
C          C       0.98707   0.46502   0.83447 
C          C       0.48696   0.46440   0.83746 
C          C       0.53560   0.02256   0.83746 
C          C       0.97744   0.51304   0.83746 
C          C       0.51304   0.53560   0.83746 
C          C       0.46440   0.97744   0.83746 
C          C       0.02256   0.48696   0.83746 
H          H       0.31060   0.60456   0.78604 
H          H       0.39544   0.70604   0.78604 
H          H       0.29396   0.68940   0.78604 
H          H       0.68940   0.39544   0.78604 
H          H       0.60456   0.29396   0.78604 
H          H       0.70604   0.31060   0.78604 
H          H       0.34748   0.59759   0.64948 
H          H       0.40241   0.74989   0.64948 
H          H       0.25011   0.65252   0.64948 
H          H       0.65252   0.40241   0.64948 
H          H       0.59759   0.25011   0.64948 
H          H       0.74989   0.34748   0.64948 
O          O       0.38542   0.56635   0.63103 
O          O       0.43365   0.81907   0.63103 
O          O       0.18093   0.61458   0.63103 
O          O       0.61458   0.43365   0.63103 
O          O       0.56635   0.18093   0.63103 
O          O       0.81907   0.38542   0.63103 
H          H       0.45755   0.65820   0.90272 
H          H       0.34180   0.79935   0.90272 
H          H       0.20065   0.54245   0.90272 
H          H       0.54245   0.34180   0.90272 
H          H       0.65820   0.20065   0.90272 
H          H       0.79935   0.45755   0.90272 
H          H       0.41820   0.67978   0.91388 
H          H       0.32022   0.73842   0.91388 
H          H       0.26158   0.58180   0.91388 
H          H       0.58180   0.32022   0.91388 
H          H       0.67978   0.26158   0.91388 
H          H       0.73842   0.41820   0.91388 
O          O       0.47486   0.42917   0.84561 
O          O       0.57083   0.04569   0.84561 
O          O       0.95431   0.52514   0.84561 
O          O       0.52514   0.57083   0.84561 
O          O       0.42917   0.95431   0.84561 
O          O       0.04569   0.47486   0.84561 
H          H       0.43781   0.46132   0.83293 
H          H       0.53868   0.97649   0.83293 
H          H       0.02351   0.56219   0.83293 
H          H       0.56219   0.53868   0.83293 
H          H       0.46132   0.02351   0.83293 
H          H       0.97649   0.43781   0.83293 
O          O       0.47913   0.62151   0.75868 
O          O       0.37849   0.85762   0.75868 
O          O       0.14238   0.52087   0.75868 
O          O       0.52087   0.37849   0.75868 
O          O       0.62151   0.14238   0.75868 
O          O       0.85762   0.47913   0.75868 
C          C       0.35125   0.54426   0.58615 
C          C       0.45574   0.80699   0.58615 
C          C       0.19301   0.64875   0.58615 
C          C       0.64875   0.45574   0.58615 
C          C       0.54426   0.19301   0.58615 
C          C       0.80699   0.35125   0.58615 
N          N       0.43835   0.56797   0.80177 
N          N       0.43203   0.87038   0.80177 
N          N       0.12962   0.56165   0.80177 
N          N       0.56165   0.43203   0.80177 
N          N       0.56797   0.12962   0.80177 
N          N       0.87038   0.43835   0.80177 
N          N       0.46188   0.55655   0.80502 
N          N       0.44345   0.90533   0.80502 
N          N       0.09467   0.53812   0.80502 
N          N       0.53812   0.44345   0.80502 
N          N       0.55655   0.09467   0.80502 
N          N       0.90533   0.46188   0.80502 
H          H       0.42603   0.50679   0.84575 
H          H       0.49321   0.91924   0.84575 
H          H       0.08076   0.57397   0.84575 
H          H       0.57397   0.49321   0.84575 
H          H       0.50679   0.08076   0.84575 
H          H       0.91924   0.42603   0.84575 
H          H       0.34968   0.52136   0.53662 
H          H       0.47864   0.82832   0.53662 
H          H       0.17168   0.65032   0.53662 
H          H       0.65032   0.47864   0.53662 
H          H       0.52136   0.17168   0.53662 
H          H       0.82832   0.34968   0.53662 
H          H       0.34344   0.55667   0.50462 
H          H       0.44333   0.78677   0.50462 
H          H       0.21323   0.65656   0.50462 
H          H       0.65656   0.44333   0.50462 
H          H       0.55667   0.21323   0.50462 
H          H       0.78677   0.34344   0.50462 
H          H       0.33368   0.53605   0.67880 
H          H       0.46395   0.79763   0.67880 
H          H       0.20237   0.66632   0.67880 
H          H       0.66632   0.46395   0.67880 
H          H       0.53605   0.20237   0.67880 
H          H       0.79763   0.33368   0.67880 
H          H       0.41280   0.55098   0.82398 
H          H       0.44902   0.86182   0.82398 
H          H       0.13818   0.58720   0.82398 
H          H       0.58720   0.44902   0.82398 
H          H       0.55098   0.13818   0.82398 
H          H       0.86182   0.41280   0.82398 
C          C       0.55885   0.59241   0.89689 
C          C       0.40759   0.96644   0.89689 
C          C       0.03356   0.44115   0.89689 
C          C       0.44115   0.40759   0.89689 
C          C       0.59241   0.03356   0.89689 
C          C       0.96644   0.55885   0.89689 
H          H       0.57796   0.59453   0.81785 
H          H       0.40547   0.98343   0.81785 
H          H       0.01657   0.42204   0.81785 
H          H       0.42204   0.40547   0.81785 
H          H       0.59453   0.01657   0.81785 
H          H       0.98343   0.57796   0.81785 
H          H       0.56270   0.58279   0.99985 
H          H       0.41721   0.97991   0.99985 
H          H       0.02009   0.43730   0.99985 
H          H       0.43730   0.41721   0.99985 
H          H       0.58279   0.02009   0.99985 
H          H       0.97991   0.56270   0.99985 
H          H       0.56263   0.61820   0.91439 
H          H       0.38180   0.94443   0.91439 
H          H       0.05557   0.43737   0.91439 
H          H       0.43737   0.38180   0.91439 
H          H       0.61820   0.05557   0.91439 
H          H       0.94443   0.56263   0.91439 
