data_crystal
 
_cell_length_a    45.53050
_cell_length_b    45.53050
_cell_length_c    7.45580
_cell_angle_alpha 90.00000
_cell_angle_beta  90.00000
_cell_angle_gamma 120.00000
 
_symmetry_space_group_name_Hall 'P 1'
_symmetry_space_group_name_H-M  'P 1'
 
loop_
_symmetry_equiv_pos_as_xyz
 'x,y,z' 
 
loop_
_atom_site_label
_atom_site_type_symbol
_atom_site_fract_x
_atom_site_fract_y
_atom_site_fract_z
C          C       0.29799   0.64346   0.28478 
C          C       0.35654   0.65453   0.28478 
C          C       0.34547   0.70201   0.28478 
C          C       0.70201   0.35654   0.28478 
C          C       0.64346   0.34547   0.28478 
C          C       0.65453   0.29799   0.28478 
C          C       0.32137   0.63184   0.28488 
C          C       0.36816   0.68953   0.28488 
C          C       0.31047   0.67863   0.28488 
C          C       0.67863   0.36816   0.28488 
C          C       0.63184   0.31047   0.28488 
C          C       0.68953   0.32137   0.28488 
C          C       0.26063   0.61895   0.28525 
C          C       0.38105   0.64168   0.28525 
C          C       0.35832   0.73937   0.28525 
C          C       0.73937   0.38105   0.28525 
C          C       0.61895   0.35832   0.28525 
C          C       0.64168   0.26063   0.28525 
C          C       0.37271   0.61059   0.20359 
C          C       0.38941   0.76212   0.20359 
C          C       0.23788   0.62729   0.20359 
C          C       0.62729   0.38941   0.20359 
C          C       0.61059   0.23788   0.20359 
C          C       0.76212   0.37271   0.20359 
C          C       0.39526   0.59768   0.20730 
C          C       0.40232   0.79758   0.20730 
C          C       0.20242   0.60474   0.20730 
C          C       0.60474   0.40232   0.20730 
C          C       0.59768   0.20242   0.20730 
C          C       0.79758   0.39526   0.20730 
C          C       0.42743   0.61726   0.28803 
C          C       0.38274   0.81017   0.28803 
C          C       0.18983   0.57257   0.28803 
C          C       0.57257   0.38274   0.28803 
C          C       0.61726   0.18983   0.28803 
C          C       0.81017   0.42743   0.28803 
C          C       0.43597   0.64862   0.36566 
C          C       0.35138   0.78735   0.36566 
C          C       0.21265   0.56403   0.36566 
C          C       0.56403   0.35138   0.36566 
C          C       0.64862   0.21265   0.36566 
C          C       0.78735   0.43597   0.36566 
C          C       0.41297   0.66038   0.36701 
C          C       0.33962   0.75259   0.36701 
C          C       0.24741   0.58703   0.36701 
C          C       0.58703   0.33962   0.36701 
C          C       0.66038   0.24741   0.36701 
C          C       0.75259   0.41297   0.36701 
C          C       0.45237   0.60533   0.29521 
C          C       0.39467   0.84704   0.29521 
C          C       0.15296   0.54763   0.29521 
C          C       0.54763   0.39467   0.29521 
C          C       0.60533   0.15296   0.29521 
C          C       0.84704   0.45237   0.29521 
C          C       0.45436   0.52651   0.27757 
C          C       0.47349   0.92785   0.27757 
C          C       0.07215   0.54564   0.27757 
C          C       0.54564   0.47349   0.27757 
C          C       0.52651   0.07215   0.27757 
C          C       0.92785   0.45436   0.27757 
C          C       0.47803   0.51337   0.27834 
C          C       0.48663   0.96466   0.27834 
C          C       0.03534   0.52197   0.27834 
C          C       0.52197   0.48663   0.27834 
C          C       0.51337   0.03534   0.27834 
C          C       0.96466   0.47803   0.27834 
C          C       0.46487   0.47823   0.27815 
C          C       0.52177   0.98664   0.27815 
C          C       0.01336   0.53513   0.27815 
C          C       0.53513   0.52177   0.27815 
C          C       0.47823   0.01336   0.27815 
C          C       0.98664   0.46487   0.27815 
C          C       0.48665   0.46487   0.27851 
C          C       0.53513   0.02178   0.27851 
C          C       0.97822   0.51335   0.27851 
C          C       0.51335   0.53513   0.27851 
C          C       0.46487   0.97822   0.27851 
C          C       0.02178   0.48665   0.27851 
H          H       0.31195   0.60346   0.28506 
H          H       0.39654   0.70849   0.28506 
H          H       0.29151   0.68805   0.28506 
H          H       0.68805   0.39654   0.28506 
H          H       0.60346   0.29151   0.28506 
H          H       0.70849   0.31195   0.28506 
H          H       0.34714   0.59573   0.13336 
H          H       0.40427   0.75141   0.13336 
H          H       0.24859   0.65286   0.13336 
H          H       0.65286   0.40427   0.13336 
H          H       0.59573   0.24859   0.13336 
H          H       0.75141   0.34714   0.13336 
O          O       0.38763   0.56698   0.12278 
O          O       0.43302   0.82065   0.12278 
O          O       0.17935   0.61237   0.12278 
O          O       0.61237   0.43302   0.12278 
O          O       0.56698   0.17935   0.12278 
O          O       0.82065   0.38763   0.12278 
H          H       0.46203   0.66489   0.42883 
H          H       0.33511   0.79714   0.42883 
H          H       0.20286   0.53797   0.42883 
H          H       0.53797   0.33511   0.42883 
H          H       0.66489   0.20286   0.42883 
H          H       0.79714   0.46203   0.42883 
H          H       0.41999   0.68547   0.43508 
H          H       0.31453   0.73452   0.43508 
H          H       0.26548   0.58001   0.43508 
H          H       0.58001   0.31453   0.43508 
H          H       0.68547   0.26548   0.43508 
H          H       0.73452   0.41999   0.43508 
H          H       0.47576   0.43623   0.27893 
H          H       0.56377   0.03953   0.27893 
H          H       0.96047   0.52424   0.27893 
H          H       0.52424   0.56377   0.27893 
H          H       0.43623   0.96047   0.27893 
H          H       0.03953   0.47576   0.27893 
H          H       0.43626   0.46034   0.27771 
H          H       0.53966   0.97592   0.27771 
H          H       0.02408   0.56374   0.27771 
H          H       0.56374   0.53966   0.27771 
H          H       0.46034   0.02408   0.27771 
H          H       0.97592   0.43626   0.27771 
O          O       0.48242   0.62571   0.31600 
O          O       0.37429   0.85671   0.31600 
O          O       0.14329   0.51758   0.31600 
O          O       0.51758   0.37429   0.31600 
O          O       0.62571   0.14329   0.31600 
O          O       0.85671   0.48242   0.31600 
C          C       0.35303   0.54452   0.07846 
C          C       0.45548   0.80851   0.07846 
C          C       0.19149   0.64697   0.07846 
C          C       0.64697   0.45548   0.07846 
C          C       0.54452   0.19149   0.07846 
C          C       0.80851   0.35303   0.07846 
N          N       0.44153   0.57005   0.28219 
N          N       0.42995   0.87148   0.28219 
N          N       0.12852   0.55847   0.28219 
N          N       0.55847   0.42995   0.28219 
N          N       0.57005   0.12852   0.28219 
N          N       0.87148   0.44153   0.28219 
N          N       0.46490   0.55863   0.28451 
N          N       0.44137   0.90627   0.28451 
N          N       0.09373   0.53510   0.28451 
N          N       0.53510   0.44137   0.28451 
N          N       0.55863   0.09373   0.28451 
N          N       0.90627   0.46490   0.28451 
H          H       0.42586   0.50819   0.27071 
H          H       0.49181   0.91767   0.27071 
H          H       0.08233   0.57414   0.27071 
H          H       0.57414   0.49181   0.27071 
H          H       0.50819   0.08233   0.27071 
H          H       0.91767   0.42586   0.27071 
H          H       0.34655   0.51726   0.10472 
H          H       0.48274   0.82929   0.10472 
H          H       0.17071   0.65345   0.10472 
H          H       0.65345   0.48274   0.10472 
H          H       0.51726   0.17071   0.10472 
H          H       0.82929   0.34655   0.10472 
H          H       0.34870   0.54760   0.43072 
H          H       0.45240   0.80110   0.43072 
H          H       0.19890   0.65130   0.43072 
H          H       0.65130   0.45240   0.43072 
H          H       0.54760   0.19890   0.43072 
H          H       0.80110   0.34870   0.43072 
H          H       0.33613   0.55071   0.16446 
H          H       0.44929   0.78542   0.16446 
H          H       0.21458   0.66387   0.16446 
H          H       0.66387   0.44929   0.16446 
H          H       0.55071   0.21458   0.16446 
H          H       0.78542   0.33613   0.16446 
H          H       0.41413   0.55115   0.26995 
H          H       0.44885   0.86298   0.26995 
H          H       0.13702   0.58587   0.26995 
H          H       0.58587   0.44885   0.26995 
H          H       0.55115   0.13702   0.26995 
H          H       0.86298   0.41413   0.26995 
C          C       0.29799   0.64346   0.78478 
C          C       0.35654   0.65453   0.78478 
C          C       0.34547   0.70201   0.78478 
C          C       0.70201   0.35654   0.78478 
C          C       0.64346   0.34547   0.78478 
C          C       0.65453   0.29799   0.78478 
C          C       0.32137   0.63184   0.78489 
C          C       0.36816   0.68953   0.78489 
C          C       0.31047   0.67863   0.78489 
C          C       0.67863   0.36816   0.78489 
C          C       0.63184   0.31047   0.78489 
C          C       0.68953   0.32137   0.78489 
C          C       0.26063   0.61895   0.78524 
C          C       0.38105   0.64168   0.78524 
C          C       0.35832   0.73937   0.78524 
C          C       0.73937   0.38105   0.78524 
C          C       0.61895   0.35832   0.78524 
C          C       0.64168   0.26063   0.78524 
C          C       0.37271   0.61059   0.70359 
C          C       0.38941   0.76212   0.70359 
C          C       0.23788   0.62729   0.70359 
C          C       0.62729   0.38941   0.70359 
C          C       0.61059   0.23788   0.70359 
C          C       0.76212   0.37271   0.70359 
C          C       0.39526   0.59768   0.70730 
C          C       0.40232   0.79758   0.70730 
C          C       0.20242   0.60474   0.70730 
C          C       0.60474   0.40232   0.70730 
C          C       0.59768   0.20242   0.70730 
C          C       0.79758   0.39526   0.70730 
C          C       0.42743   0.61726   0.78803 
C          C       0.38274   0.81017   0.78803 
C          C       0.18983   0.57257   0.78803 
C          C       0.57257   0.38274   0.78803 
C          C       0.61726   0.18983   0.78803 
C          C       0.81017   0.42743   0.78803 
C          C       0.43597   0.64862   0.86565 
C          C       0.35138   0.78735   0.86565 
C          C       0.21265   0.56403   0.86565 
C          C       0.56403   0.35138   0.86565 
C          C       0.64862   0.21265   0.86565 
C          C       0.78735   0.43597   0.86565 
C          C       0.41297   0.66038   0.86701 
C          C       0.33962   0.75259   0.86701 
C          C       0.24741   0.58703   0.86701 
C          C       0.58703   0.33962   0.86701 
C          C       0.66038   0.24741   0.86701 
C          C       0.75259   0.41297   0.86701 
C          C       0.45237   0.60533   0.79521 
C          C       0.39467   0.84704   0.79521 
C          C       0.15296   0.54763   0.79521 
C          C       0.54763   0.39467   0.79521 
C          C       0.60533   0.15296   0.79521 
C          C       0.84704   0.45237   0.79521 
C          C       0.45436   0.52651   0.77757 
C          C       0.47349   0.92785   0.77757 
C          C       0.07215   0.54564   0.77757 
C          C       0.54564   0.47349   0.77757 
C          C       0.52651   0.07215   0.77757 
C          C       0.92785   0.45436   0.77757 
C          C       0.47803   0.51337   0.77834 
C          C       0.48663   0.96466   0.77834 
C          C       0.03534   0.52197   0.77834 
C          C       0.52197   0.48663   0.77834 
C          C       0.51337   0.03534   0.77834 
C          C       0.96466   0.47803   0.77834 
C          C       0.46487   0.47823   0.77815 
C          C       0.52177   0.98664   0.77815 
C          C       0.01336   0.53513   0.77815 
C          C       0.53513   0.52177   0.77815 
C          C       0.47823   0.01336   0.77815 
C          C       0.98664   0.46487   0.77815 
C          C       0.48665   0.46487   0.77851 
C          C       0.53513   0.02178   0.77851 
C          C       0.97822   0.51335   0.77851 
C          C       0.51335   0.53513   0.77851 
C          C       0.46487   0.97822   0.77851 
C          C       0.02178   0.48665   0.77851 
H          H       0.31195   0.60346   0.78506 
H          H       0.39654   0.70849   0.78506 
H          H       0.29151   0.68805   0.78506 
H          H       0.68805   0.39654   0.78506 
H          H       0.60346   0.29151   0.78506 
H          H       0.70849   0.31195   0.78506 
H          H       0.34714   0.59573   0.63336 
H          H       0.40427   0.75141   0.63336 
H          H       0.24859   0.65286   0.63336 
H          H       0.65286   0.40427   0.63336 
H          H       0.59573   0.24859   0.63336 
H          H       0.75141   0.34714   0.63336 
O          O       0.38763   0.56698   0.62278 
O          O       0.43302   0.82065   0.62278 
O          O       0.17935   0.61237   0.62278 
O          O       0.61237   0.43302   0.62278 
O          O       0.56698   0.17935   0.62278 
O          O       0.82065   0.38763   0.62278 
H          H       0.46203   0.66489   0.92883 
H          H       0.33511   0.79714   0.92883 
H          H       0.20286   0.53797   0.92883 
H          H       0.53797   0.33511   0.92883 
H          H       0.66489   0.20286   0.92883 
H          H       0.79714   0.46203   0.92883 
H          H       0.41999   0.68547   0.93508 
H          H       0.31453   0.73452   0.93508 
H          H       0.26548   0.58001   0.93508 
H          H       0.58001   0.31453   0.93508 
H          H       0.68547   0.26548   0.93508 
H          H       0.73452   0.41999   0.93508 
H          H       0.47576   0.43623   0.77893 
H          H       0.56377   0.03953   0.77893 
H          H       0.96047   0.52424   0.77893 
H          H       0.52424   0.56377   0.77893 
H          H       0.43623   0.96047   0.77893 
H          H       0.03953   0.47576   0.77893 
H          H       0.43626   0.46034   0.77771 
H          H       0.53966   0.97592   0.77771 
H          H       0.02408   0.56374   0.77771 
H          H       0.56374   0.53966   0.77771 
H          H       0.46034   0.02408   0.77771 
H          H       0.97592   0.43626   0.77771 
O          O       0.48242   0.62571   0.81600 
O          O       0.37429   0.85671   0.81600 
O          O       0.14329   0.51758   0.81600 
O          O       0.51758   0.37429   0.81600 
O          O       0.62571   0.14329   0.81600 
O          O       0.85671   0.48242   0.81600 
C          C       0.35303   0.54452   0.57847 
C          C       0.45548   0.80851   0.57847 
C          C       0.19149   0.64697   0.57847 
C          C       0.64697   0.45548   0.57847 
C          C       0.54452   0.19149   0.57847 
C          C       0.80851   0.35303   0.57847 
N          N       0.44153   0.57005   0.78218 
N          N       0.42995   0.87148   0.78218 
N          N       0.12852   0.55847   0.78218 
N          N       0.55847   0.42995   0.78218 
N          N       0.57005   0.12852   0.78218 
N          N       0.87148   0.44153   0.78218 
N          N       0.46490   0.55863   0.78451 
N          N       0.44137   0.90627   0.78451 
N          N       0.09373   0.53510   0.78451 
N          N       0.53510   0.44137   0.78451 
N          N       0.55863   0.09373   0.78451 
N          N       0.90627   0.46490   0.78451 
H          H       0.42586   0.50819   0.77071 
H          H       0.49181   0.91767   0.77071 
H          H       0.08233   0.57414   0.77071 
H          H       0.57414   0.49181   0.77071 
H          H       0.50819   0.08233   0.77071 
H          H       0.91767   0.42586   0.77071 
H          H       0.34655   0.51726   0.60472 
H          H       0.48274   0.82929   0.60472 
H          H       0.17071   0.65345   0.60472 
H          H       0.65345   0.48274   0.60472 
H          H       0.51726   0.17071   0.60472 
H          H       0.82929   0.34655   0.60472 
H          H       0.34870   0.54760   0.93072 
H          H       0.45240   0.80110   0.93072 
H          H       0.19890   0.65130   0.93072 
H          H       0.65130   0.45240   0.93072 
H          H       0.54760   0.19890   0.93072 
H          H       0.80110   0.34870   0.93072 
H          H       0.33613   0.55071   0.66446 
H          H       0.44929   0.78542   0.66446 
H          H       0.21458   0.66387   0.66446 
H          H       0.66387   0.44929   0.66446 
H          H       0.55071   0.21458   0.66446 
H          H       0.78542   0.33613   0.66446 
H          H       0.41413   0.55115   0.76995 
H          H       0.44885   0.86298   0.76995 
H          H       0.13702   0.58587   0.76995 
H          H       0.58587   0.44885   0.76995 
H          H       0.55115   0.13702   0.76995 
H          H       0.86298   0.41413   0.76995 
