data_crystal
 
_cell_length_a    45.58860
_cell_length_b    45.58860
_cell_length_c    7.51200
_cell_angle_alpha 90.00000
_cell_angle_beta  90.00000
_cell_angle_gamma 120.00000
 
_space_group_name_Hall 'P 1'
_space_group_name_H-M_alt  'P 1'
 
loop_
_symmetry_equiv_pos_as_xyz
 'x,y,z' 
 
loop_
_atom_site_label
_atom_site_type_symbol
_atom_site_fract_x
_atom_site_fract_y
_atom_site_fract_z
C          C       0.29780   0.64478   0.31961 
C          C       0.35522   0.65302   0.31961 
C          C       0.34698   0.70220   0.31961 
C          C       0.70220   0.35522   0.31961 
C          C       0.64478   0.34698   0.31961 
C          C       0.65302   0.29780   0.31961 
C          C       0.31986   0.63161   0.32053 
C          C       0.36839   0.68825   0.32053 
C          C       0.31175   0.68014   0.32053 
C          C       0.68014   0.36839   0.32053 
C          C       0.63161   0.31175   0.32053 
C          C       0.68825   0.31986   0.32053 
C          C       0.26032   0.62156   0.31514 
C          C       0.37844   0.63876   0.31514 
C          C       0.36124   0.73968   0.31514 
C          C       0.73968   0.37844   0.31514 
C          C       0.62156   0.36124   0.31514 
C          C       0.63876   0.26032   0.31514 
C          C       0.36879   0.60747   0.23397 
C          C       0.39253   0.76132   0.23397 
C          C       0.23868   0.63121   0.23397 
C          C       0.63121   0.39253   0.23397 
C          C       0.60747   0.23868   0.23397 
C          C       0.76132   0.36879   0.23397 
C          C       0.39085   0.59405   0.22793 
C          C       0.40595   0.79680   0.22793 
C          C       0.20320   0.60915   0.22793 
C          C       0.60915   0.40595   0.22793 
C          C       0.59405   0.20320   0.22793 
C          C       0.79680   0.39085   0.22793 
C          C       0.42372   0.61281   0.30153 
C          C       0.38719   0.81091   0.30153 
C          C       0.18909   0.57628   0.30153 
C          C       0.57628   0.38719   0.30153 
C          C       0.61281   0.18909   0.30153 
C          C       0.81091   0.42372   0.30153 
C          C       0.43444   0.64448   0.38020 
C          C       0.35552   0.78996   0.38020 
C          C       0.21004   0.56556   0.38020 
C          C       0.56556   0.35552   0.38020 
C          C       0.64448   0.21004   0.38020 
C          C       0.78996   0.43444   0.38020 
C          C       0.41287   0.65766   0.39202 
C          C       0.34234   0.75521   0.39202 
C          C       0.24479   0.58713   0.39202 
C          C       0.58713   0.34234   0.39202 
C          C       0.65766   0.24479   0.39202 
C          C       0.75521   0.41287   0.39202 
C          C       0.44774   0.59984   0.29763 
C          C       0.40016   0.84790   0.29763 
C          C       0.15210   0.55226   0.29763 
C          C       0.55226   0.40016   0.29763 
C          C       0.59984   0.15210   0.29763 
C          C       0.84790   0.44774   0.29763 
C          C       0.45192   0.52441   0.38179 
C          C       0.47559   0.92751   0.38179 
C          C       0.07249   0.54808   0.38179 
C          C       0.54808   0.47559   0.38179 
C          C       0.52441   0.07249   0.38179 
C          C       0.92751   0.45192   0.38179 
C          C       0.47669   0.51246   0.38422 
C          C       0.48754   0.96423   0.38422 
C          C       0.03577   0.52331   0.38422 
C          C       0.52331   0.48754   0.38422 
C          C       0.51246   0.03577   0.38422 
C          C       0.96423   0.47669   0.38422 
C          C       0.46421   0.47751   0.38692 
C          C       0.52249   0.98670   0.38692 
C          C       0.01330   0.53579   0.38692 
C          C       0.53579   0.52249   0.38692 
C          C       0.47751   0.01330   0.38692 
C          C       0.98670   0.46421   0.38692 
C          C       0.48591   0.46423   0.38736 
C          C       0.53577   0.02168   0.38736 
C          C       0.97832   0.51409   0.38736 
C          C       0.51409   0.53577   0.38736 
C          C       0.46423   0.97832   0.38736 
C          C       0.02168   0.48591   0.38736 
H          H       0.30942   0.60453   0.32090 
H          H       0.39547   0.70489   0.32090 
H          H       0.29511   0.69058   0.32090 
H          H       0.69058   0.39547   0.32090 
H          H       0.60453   0.29511   0.32090 
H          H       0.70489   0.30942   0.32090 
H          H       0.34441   0.59412   0.17005 
H          H       0.40588   0.75029   0.17005 
H          H       0.24971   0.65559   0.17005 
H          H       0.65559   0.40588   0.17005 
H          H       0.59412   0.24971   0.17005 
H          H       0.75029   0.34441   0.17005 
O          O       0.38205   0.56308   0.14281 
O          O       0.43692   0.81897   0.14281 
O          O       0.18103   0.61795   0.14281 
O          O       0.61795   0.43692   0.14281 
O          O       0.56308   0.18103   0.14281 
O          O       0.81897   0.38205   0.14281 
H          H       0.45946   0.65862   0.43860 
H          H       0.34138   0.80084   0.43860 
H          H       0.19916   0.54054   0.43860 
H          H       0.54054   0.34138   0.43860 
H          H       0.65862   0.19916   0.43860 
H          H       0.80084   0.45946   0.43860 
H          H       0.42138   0.68119   0.46306 
H          H       0.31881   0.74019   0.46306 
H          H       0.25981   0.57862   0.46306 
H          H       0.57862   0.31881   0.46306 
H          H       0.68119   0.25981   0.46306 
H          H       0.74019   0.42138   0.46306 
Cl         Cl      0.46739   0.41991   0.40080 
Cl         Cl      0.58009   0.04748   0.40080 
Cl         Cl      0.95252   0.53261   0.40080 
Cl         Cl      0.53261   0.58009   0.40080 
Cl         Cl      0.41991   0.95252   0.40080 
Cl         Cl      0.04748   0.46739   0.40080 
H          H       0.43710   0.46020   0.38864 
H          H       0.53980   0.97690   0.38864 
H          H       0.02310   0.56290   0.38864 
H          H       0.56290   0.53980   0.38864 
H          H       0.46020   0.02310   0.38864 
H          H       0.97690   0.43710   0.38864 
O          O       0.47744   0.61927   0.26226 
O          O       0.38073   0.85817   0.26226 
O          O       0.14183   0.52256   0.26226 
O          O       0.52256   0.38073   0.26226 
O          O       0.61927   0.14183   0.26226 
O          O       0.85817   0.47744   0.26226 
C          C       0.34782   0.54133   0.08818 
C          C       0.45867   0.80649   0.08818 
C          C       0.19351   0.65218   0.08818 
C          C       0.65218   0.45867   0.08818 
C          C       0.54133   0.19351   0.08818 
C          C       0.80649   0.34782   0.08818 
N          N       0.43740   0.56684   0.33875 
N          N       0.43316   0.87056   0.33875 
N          N       0.12944   0.56260   0.33875 
N          N       0.56260   0.43316   0.33875 
N          N       0.56684   0.12944   0.33875 
N          N       0.87056   0.43740   0.33875 
N          N       0.46080   0.55536   0.34118 
N          N       0.44464   0.90544   0.34118 
N          N       0.09456   0.53920   0.34118 
N          N       0.53920   0.44464   0.34118 
N          N       0.55536   0.09456   0.34118 
N          N       0.90544   0.46080   0.34118 
H          H       0.42557   0.50650   0.41058 
H          H       0.49350   0.91907   0.41058 
H          H       0.08093   0.57443   0.41058 
H          H       0.57443   0.49350   0.41058 
H          H       0.50650   0.08093   0.41058 
H          H       0.91907   0.42557   0.41058 
H          H       0.34008   0.55388   0.48773 
H          H       0.44612   0.78620   0.48773 
H          H       0.21380   0.65992   0.48773 
H          H       0.65992   0.44612   0.48773 
H          H       0.55388   0.21380   0.48773 
H          H       0.78620   0.34008   0.48773 
H          H       0.33037   0.53333   0.20352 
H          H       0.46667   0.79704   0.20352 
H          H       0.20296   0.66963   0.20352 
H          H       0.66963   0.46667   0.20352 
H          H       0.53333   0.20296   0.20352 
H          H       0.79704   0.33037   0.20352 
H          H       0.34587   0.51832   0.02642 
H          H       0.48168   0.82755   0.02642 
H          H       0.17245   0.65413   0.02642 
H          H       0.65413   0.48168   0.02642 
H          H       0.51832   0.17245   0.02642 
H          H       0.82755   0.34587   0.02642 
H          H       0.41233   0.55043   0.37656 
H          H       0.44957   0.86190   0.37656 
H          H       0.13810   0.58767   0.37656 
H          H       0.58767   0.44957   0.37656 
H          H       0.55043   0.13810   0.37656 
H          H       0.86190   0.41233   0.37656 
C          C       0.29780   0.64478   0.81961 
C          C       0.35522   0.65302   0.81961 
C          C       0.34698   0.70220   0.81961 
C          C       0.70220   0.35522   0.81961 
C          C       0.64478   0.34698   0.81961 
C          C       0.65302   0.29780   0.81961 
C          C       0.31986   0.63161   0.82053 
C          C       0.36839   0.68825   0.82053 
C          C       0.31175   0.68014   0.82053 
C          C       0.68014   0.36839   0.82053 
C          C       0.63161   0.31175   0.82053 
C          C       0.68825   0.31986   0.82053 
C          C       0.26032   0.62156   0.81514 
C          C       0.37844   0.63876   0.81514 
C          C       0.36124   0.73968   0.81514 
C          C       0.73968   0.37844   0.81514 
C          C       0.62156   0.36124   0.81514 
C          C       0.63876   0.26032   0.81514 
C          C       0.36879   0.60747   0.73397 
C          C       0.39253   0.76132   0.73397 
C          C       0.23868   0.63121   0.73397 
C          C       0.63121   0.39253   0.73397 
C          C       0.60747   0.23868   0.73397 
C          C       0.76132   0.36879   0.73397 
C          C       0.39085   0.59405   0.72793 
C          C       0.40595   0.79680   0.72793 
C          C       0.20320   0.60915   0.72793 
C          C       0.60915   0.40595   0.72793 
C          C       0.59405   0.20320   0.72793 
C          C       0.79680   0.39085   0.72793 
C          C       0.42372   0.61281   0.80153 
C          C       0.38719   0.81091   0.80153 
C          C       0.18909   0.57628   0.80153 
C          C       0.57628   0.38719   0.80153 
C          C       0.61281   0.18909   0.80153 
C          C       0.81091   0.42372   0.80153 
C          C       0.43444   0.64448   0.88020 
C          C       0.35552   0.78996   0.88020 
C          C       0.21004   0.56556   0.88020 
C          C       0.56556   0.35552   0.88020 
C          C       0.64448   0.21004   0.88020 
C          C       0.78996   0.43444   0.88020 
C          C       0.41287   0.65766   0.89202 
C          C       0.34234   0.75521   0.89202 
C          C       0.24479   0.58713   0.89202 
C          C       0.58713   0.34234   0.89202 
C          C       0.65766   0.24479   0.89202 
C          C       0.75521   0.41287   0.89202 
C          C       0.44774   0.59984   0.79763 
C          C       0.40016   0.84790   0.79763 
C          C       0.15210   0.55226   0.79763 
C          C       0.55226   0.40016   0.79763 
C          C       0.59984   0.15210   0.79763 
C          C       0.84790   0.44774   0.79763 
C          C       0.45192   0.52441   0.88179 
C          C       0.47559   0.92751   0.88179 
C          C       0.07249   0.54808   0.88179 
C          C       0.54808   0.47559   0.88179 
C          C       0.52441   0.07249   0.88179 
C          C       0.92751   0.45192   0.88179 
C          C       0.47669   0.51246   0.88422 
C          C       0.48754   0.96423   0.88422 
C          C       0.03577   0.52331   0.88422 
C          C       0.52331   0.48754   0.88422 
C          C       0.51246   0.03577   0.88422 
C          C       0.96423   0.47669   0.88422 
C          C       0.46421   0.47751   0.88692 
C          C       0.52249   0.98670   0.88692 
C          C       0.01330   0.53579   0.88692 
C          C       0.53579   0.52249   0.88692 
C          C       0.47751   0.01330   0.88692 
C          C       0.98670   0.46421   0.88692 
C          C       0.48591   0.46423   0.88736 
C          C       0.53577   0.02168   0.88736 
C          C       0.97832   0.51409   0.88736 
C          C       0.51409   0.53577   0.88736 
C          C       0.46423   0.97832   0.88736 
C          C       0.02168   0.48591   0.88736 
H          H       0.30942   0.60453   0.82090 
H          H       0.39547   0.70489   0.82090 
H          H       0.29511   0.69058   0.82090 
H          H       0.69058   0.39547   0.82090 
H          H       0.60453   0.29511   0.82090 
H          H       0.70489   0.30942   0.82090 
H          H       0.34441   0.59412   0.67005 
H          H       0.40588   0.75029   0.67005 
H          H       0.24971   0.65559   0.67005 
H          H       0.65559   0.40588   0.67005 
H          H       0.59412   0.24971   0.67005 
H          H       0.75029   0.34441   0.67005 
O          O       0.38205   0.56308   0.64281 
O          O       0.43692   0.81897   0.64281 
O          O       0.18103   0.61795   0.64281 
O          O       0.61795   0.43692   0.64281 
O          O       0.56308   0.18103   0.64281 
O          O       0.81897   0.38205   0.64281 
H          H       0.45946   0.65862   0.93859 
H          H       0.34138   0.80084   0.93859 
H          H       0.19916   0.54054   0.93859 
H          H       0.54054   0.34138   0.93859 
H          H       0.65862   0.19916   0.93859 
H          H       0.80084   0.45946   0.93859 
H          H       0.42138   0.68119   0.96306 
H          H       0.31881   0.74019   0.96306 
H          H       0.25981   0.57862   0.96306 
H          H       0.57862   0.31881   0.96306 
H          H       0.68119   0.25981   0.96306 
H          H       0.74019   0.42138   0.96306 
Cl         Cl      0.46739   0.41991   0.90080 
Cl         Cl      0.58009   0.04748   0.90080 
Cl         Cl      0.95252   0.53261   0.90080 
Cl         Cl      0.53261   0.58009   0.90080 
Cl         Cl      0.41991   0.95252   0.90080 
Cl         Cl      0.04748   0.46739   0.90080 
H          H       0.43710   0.46020   0.88864 
H          H       0.53980   0.97690   0.88864 
H          H       0.02310   0.56290   0.88864 
H          H       0.56290   0.53980   0.88864 
H          H       0.46020   0.02310   0.88864 
H          H       0.97690   0.43710   0.88864 
O          O       0.47744   0.61927   0.76226 
O          O       0.38073   0.85817   0.76226 
O          O       0.14183   0.52256   0.76226 
O          O       0.52256   0.38073   0.76226 
O          O       0.61927   0.14183   0.76226 
O          O       0.85817   0.47744   0.76226 
C          C       0.34782   0.54133   0.58818 
C          C       0.45867   0.80649   0.58818 
C          C       0.19351   0.65218   0.58818 
C          C       0.65218   0.45867   0.58818 
C          C       0.54133   0.19351   0.58818 
C          C       0.80649   0.34782   0.58818 
N          N       0.43740   0.56684   0.83875 
N          N       0.43316   0.87056   0.83875 
N          N       0.12944   0.56260   0.83875 
N          N       0.56260   0.43316   0.83875 
N          N       0.56684   0.12944   0.83875 
N          N       0.87056   0.43740   0.83875 
N          N       0.46080   0.55536   0.84118 
N          N       0.44464   0.90544   0.84118 
N          N       0.09456   0.53920   0.84118 
N          N       0.53920   0.44464   0.84118 
N          N       0.55536   0.09456   0.84118 
N          N       0.90544   0.46080   0.84118 
H          H       0.42557   0.50650   0.91058 
H          H       0.49350   0.91907   0.91058 
H          H       0.08093   0.57443   0.91058 
H          H       0.57443   0.49350   0.91058 
H          H       0.50650   0.08093   0.91058 
H          H       0.91907   0.42557   0.91058 
H          H       0.34008   0.55388   0.98773 
H          H       0.44612   0.78620   0.98773 
H          H       0.21380   0.65992   0.98773 
H          H       0.65992   0.44612   0.98773 
H          H       0.55388   0.21380   0.98773 
H          H       0.78620   0.34008   0.98773 
H          H       0.33037   0.53333   0.70352 
H          H       0.46667   0.79704   0.70352 
H          H       0.20296   0.66963   0.70352 
H          H       0.66963   0.46667   0.70352 
H          H       0.53333   0.20296   0.70352 
H          H       0.79704   0.33037   0.70352 
H          H       0.34587   0.51832   0.52642 
H          H       0.48168   0.82755   0.52642 
H          H       0.17245   0.65413   0.52642 
H          H       0.65413   0.48168   0.52642 
H          H       0.51832   0.17245   0.52642 
H          H       0.82755   0.34587   0.52642 
H          H       0.41233   0.55043   0.87656 
H          H       0.44957   0.86190   0.87656 
H          H       0.13810   0.58767   0.87656 
H          H       0.58767   0.44957   0.87656 
H          H       0.55043   0.13810   0.87656 
H          H       0.86190   0.41233   0.87656 
