data_crystal
 
_cell_length_a    30.20800
_cell_length_b    30.20800
_cell_length_c    7.56780
_cell_angle_alpha 90.00000
_cell_angle_beta  90.00000
_cell_angle_gamma 120.00000
 
_symmetry_space_group_name_Hall 'P 1'
_symmetry_space_group_name_H-M  'P 1'
 
loop_
_symmetry_equiv_pos_as_xyz
 'x,y,z' 
 
loop_
_atom_site_label
_atom_site_type_symbol
_atom_site_fract_x
_atom_site_fract_y
_atom_site_fract_z
C          C       0.27911   0.63239   0.25856 
C          C       0.31194   0.61192   0.25297 
C          C       0.22235   0.59772   0.25865 
C          C       0.38303   0.57377   0.15174 
C          C       0.41429   0.55117   0.14362 
C          C       0.46387   0.57794   0.21654 
C          C       0.48104   0.62594   0.29591 
C          C       0.44913   0.64689   0.30885 
C          C       0.49845   0.55633   0.21224 
N          N       0.48115   0.50623   0.25725 
H          H       0.29572   0.57077   0.25111 
H          H       0.34619   0.55515   0.08814 
O          O       0.39898   0.50377   0.05896 
H          H       0.51883   0.64653   0.35409 
H          H       0.46315   0.68263   0.38009 
O          O       0.54329   0.58416   0.17322 
C          C       0.34699   0.47280   0.00484 
C          C       0.36537   0.64386   0.24849 
C          C       0.38581   0.69740   0.25334 
C          C       0.39962   0.62126   0.23658 
C          C       0.42389   0.80907   0.18009 
C          C       0.44548   0.86308   0.18161 
C          C       0.41762   0.88417   0.25939 
C          C       0.36978   0.85157   0.33545 
C          C       0.34985   0.79862   0.33888 
C          C       0.43818   0.94031   0.26465 
N          N       0.49169   0.97460   0.28762 
H          H       0.42673   0.72223   0.25174 
H          H       0.44332   0.79228   0.11221 
O          O       0.49295   0.89704   0.10192 
H          H       0.34843   0.86736   0.39836 
H          H       0.31414   0.77553   0.40785 
O          O       0.40919   0.95742   0.25466 
C          C       0.52475   0.87748   0.04205 
C          C       0.35401   0.71918   0.25910 
C          C       0.30072   0.68607   0.26177 
C          C       0.37627   0.77632   0.26001 
C          C       0.18995   0.61321   0.17986 
C          C       0.13621   0.58095   0.18043 
C          C       0.11508   0.53166   0.25683 
C          C       0.14740   0.51585   0.33185 
C          C       0.20012   0.54865   0.33555 
C          C       0.05918   0.49630   0.26167 
N          N       0.02518   0.51590   0.28495 
H          H       0.27580   0.70211   0.26576 
H          H       0.20691   0.64989   0.11402 
O          O       0.10255   0.59498   0.10132 
H          H       0.13160   0.47843   0.39345 
H          H       0.22318   0.53565   0.40291 
O          O       0.04203   0.45005   0.25101 
C          C       0.12226   0.64653   0.04147 
C          C       0.72139   0.36665   0.31561 
C          C       0.68857   0.38723   0.31524 
C          C       0.77817   0.40112   0.31548 
C          C       0.61590   0.42561   0.23597 
C          C       0.58372   0.44656   0.23702 
C          C       0.53506   0.41964   0.31454 
C          C       0.51947   0.37184   0.39286 
C          C       0.55202   0.35140   0.39565 
C          C       0.49996   0.44040   0.31498 
N          N       0.51435   0.48621   0.25660 
H          H       0.70473   0.42838   0.31455 
H          H       0.65209   0.44657   0.16784 
H          H       0.48233   0.35067   0.45537 
H          H       0.53921   0.31548   0.46453 
C          C       0.63513   0.35530   0.31590 
C          C       0.61469   0.30175   0.31656 
C          C       0.60069   0.37772   0.31596 
C          C       0.57599   0.19036   0.23946 
C          C       0.55459   0.13705   0.24304 
C          C       0.58118   0.11486   0.32057 
C          C       0.62924   0.14686   0.39575 
C          C       0.65010   0.20013   0.39668 
C          C       0.55954   0.05870   0.32390 
N          N       0.51208   0.02789   0.28436 
H          H       0.57375   0.27686   0.31692 
H          H       0.55521   0.20583   0.17119 
H          H       0.65019   0.13053   0.45796 
H          H       0.68616   0.22313   0.46377 
C          C       0.64643   0.27995   0.31683 
C          C       0.69970   0.31293   0.31649 
C          C       0.62395   0.22287   0.31763 
C          C       0.81041   0.38530   0.23719 
C          C       0.86347   0.41703   0.24041 
C          C       0.88567   0.46597   0.31772 
C          C       0.85394   0.48242   0.39283 
C          C       0.80091   0.45019   0.39407 
C          C       0.94158   0.50027   0.32100 
N          N       0.97212   0.48324   0.28154 
H          H       0.72446   0.29667   0.31693 
H          H       0.79491   0.34889   0.16926 
H          H       0.87028   0.51984   0.45481 
H          H       0.77810   0.46353   0.46111 
H          H       0.44338   0.48313   0.29913 
H          H       0.34214   0.43709   0.44376 
H          H       0.33672   0.49299   0.40490 
H          H       0.32080   0.46192   0.11954 
H          H       0.50547   0.84837   0.43729 
H          H       0.53554   0.86071   0.15285 
H          H       0.56023   0.90959   0.48535 
H          H       0.15124   0.65613   0.43685 
H          H       0.13902   0.67412   0.15232 
H          H       0.09044   0.65027   0.48461 
H          H       0.59654   0.48330   0.17356 
H          H       0.46171   0.41702   0.36763 
H          H       0.51774   0.11328   0.18130 
H          H       0.58348   0.04306   0.36412 
H          H       0.88703   0.40366   0.17869 
H          H       0.95724   0.53997   0.36123 
C          C       0.27911   0.63239   0.75856 
C          C       0.31194   0.61192   0.75297 
C          C       0.22235   0.59772   0.75865 
C          C       0.38303   0.57377   0.65174 
C          C       0.41429   0.55117   0.64362 
C          C       0.46387   0.57794   0.71654 
C          C       0.48104   0.62594   0.79591 
C          C       0.44913   0.64689   0.80885 
C          C       0.49845   0.55633   0.71225 
N          N       0.48115   0.50623   0.75725 
H          H       0.29572   0.57077   0.75111 
H          H       0.34619   0.55515   0.58814 
O          O       0.39898   0.50377   0.55895 
H          H       0.51883   0.64653   0.85409 
H          H       0.46315   0.68263   0.88009 
O          O       0.54329   0.58416   0.67322 
C          C       0.34699   0.47280   0.50484 
C          C       0.36537   0.64386   0.74850 
C          C       0.38581   0.69740   0.75334 
C          C       0.39962   0.62126   0.73659 
C          C       0.42389   0.80907   0.68009 
C          C       0.44548   0.86308   0.68162 
C          C       0.41762   0.88417   0.75939 
C          C       0.36978   0.85157   0.83545 
C          C       0.34985   0.79862   0.83889 
C          C       0.43818   0.94031   0.76465 
N          N       0.49169   0.97460   0.78762 
H          H       0.42673   0.72223   0.75174 
H          H       0.44332   0.79228   0.61221 
O          O       0.49295   0.89704   0.60191 
H          H       0.34843   0.86736   0.89836 
H          H       0.31414   0.77553   0.90785 
O          O       0.40919   0.95742   0.75466 
C          C       0.52475   0.87748   0.54205 
C          C       0.35401   0.71918   0.75910 
C          C       0.30072   0.68607   0.76177 
C          C       0.37627   0.77632   0.76001 
C          C       0.18995   0.61321   0.67986 
C          C       0.13621   0.58095   0.68043 
C          C       0.11508   0.53166   0.75683 
C          C       0.14740   0.51585   0.83185 
C          C       0.20012   0.54865   0.83555 
C          C       0.05918   0.49630   0.76167 
N          N       0.02518   0.51590   0.78495 
H          H       0.27580   0.70211   0.76576 
H          H       0.20691   0.64989   0.61402 
O          O       0.10255   0.59498   0.60132 
H          H       0.13160   0.47843   0.89345 
H          H       0.22318   0.53565   0.90290 
O          O       0.04203   0.45005   0.75101 
C          C       0.12226   0.64653   0.54147 
C          C       0.72139   0.36665   0.81561 
C          C       0.68857   0.38723   0.81524 
C          C       0.77817   0.40112   0.81548 
C          C       0.61590   0.42561   0.73598 
C          C       0.58372   0.44656   0.73702 
C          C       0.53506   0.41964   0.81454 
C          C       0.51947   0.37184   0.89285 
C          C       0.55202   0.35140   0.89565 
C          C       0.49996   0.44040   0.81498 
N          N       0.51435   0.48621   0.75660 
H          H       0.70473   0.42838   0.81455 
H          H       0.65209   0.44657   0.66784 
H          H       0.48233   0.35067   0.95537 
H          H       0.53921   0.31548   0.96453 
C          C       0.63513   0.35530   0.81590 
C          C       0.61469   0.30175   0.81656 
C          C       0.60069   0.37772   0.81596 
C          C       0.57599   0.19036   0.73946 
C          C       0.55459   0.13705   0.74304 
C          C       0.58118   0.11486   0.82058 
C          C       0.62924   0.14686   0.89575 
C          C       0.65010   0.20013   0.89668 
C          C       0.55954   0.05870   0.82390 
N          N       0.51208   0.02789   0.78436 
H          H       0.57375   0.27686   0.81692 
H          H       0.55521   0.20583   0.67119 
H          H       0.65019   0.13053   0.95796 
H          H       0.68616   0.22313   0.96377 
C          C       0.64643   0.27995   0.81683 
C          C       0.69970   0.31293   0.81648 
C          C       0.62395   0.22287   0.81763 
C          C       0.81041   0.38530   0.73719 
C          C       0.86347   0.41703   0.74041 
C          C       0.88567   0.46597   0.81772 
C          C       0.85394   0.48242   0.89283 
C          C       0.80091   0.45019   0.89407 
C          C       0.94158   0.50027   0.82100 
N          N       0.97212   0.48324   0.78154 
H          H       0.72446   0.29667   0.81693 
H          H       0.79491   0.34889   0.66926 
H          H       0.87028   0.51984   0.95481 
H          H       0.77810   0.46353   0.96111 
H          H       0.44338   0.48313   0.79914 
H          H       0.34214   0.43709   0.94376 
H          H       0.33672   0.49299   0.90490 
H          H       0.32080   0.46192   0.61954 
H          H       0.50547   0.84837   0.93729 
H          H       0.53554   0.86071   0.65286 
H          H       0.56023   0.90959   0.98535 
H          H       0.15124   0.65613   0.93685 
H          H       0.13902   0.67412   0.65232 
H          H       0.09044   0.65027   0.98461 
H          H       0.59654   0.48330   0.67356 
H          H       0.46171   0.41702   0.86763 
H          H       0.51774   0.11328   0.68129 
H          H       0.58348   0.04306   0.86412 
H          H       0.88703   0.40366   0.67868 
H          H       0.95724   0.53997   0.86123 
