data_new_xtal_PM
_symmetry_space_group_name_H-M    'P1'
_cell_length_a    45.588600
_cell_length_b    45.588600
_cell_length_c    7.512000
_cell_angle_alpha    90.000000
_cell_angle_beta    90.000000
_cell_angle_gamma    120.000000
_symmetry_Int_Tables_number 1

loop_
_symmetry_equiv_pos_as_xyz
'x,y,z'

loop_
_atom_site_label
_atom_site_type_symbol
_atom_site_fract_x
_atom_site_fract_y
_atom_site_fract_z
C1    C    0.297800    0.644780    0.319610
C2    C    0.355220    0.653020    0.319610
C3    C    0.346980    0.702200    0.319610
C4    C    0.702200    0.355220    0.319610
C5    C    0.644780    0.346980    0.319610
C6    C    0.653020    0.297800    0.319610
C7    C    0.319860    0.631610    0.320530
C8    C    0.368390    0.688250    0.320530
C9    C    0.311750    0.680140    0.320530
C10    C    0.680140    0.368390    0.320530
C11    C    0.631610    0.311750    0.320530
C12    C    0.688250    0.319860    0.320530
C13    C    0.260320    0.621560    0.315140
C14    C    0.378440    0.638760    0.315140
C15    C    0.361240    0.739680    0.315140
C16    C    0.739680    0.378440    0.315140
C17    C    0.621560    0.361240    0.315140
C18    C    0.638760    0.260320    0.315140
C19    C    0.368790    0.607470    0.233970
C20    C    0.392530    0.761320    0.233970
C21    C    0.238680    0.631210    0.233970
C22    C    0.631210    0.392530    0.233970
C23    C    0.607470    0.238680    0.233970
C24    C    0.761320    0.368790    0.233970
C25    C    0.390850    0.594050    0.227930
C26    C    0.405950    0.796800    0.227930
C27    C    0.203200    0.609150    0.227930
C28    C    0.609150    0.405950    0.227930
C29    C    0.594050    0.203200    0.227930
C30    C    0.796800    0.390850    0.227930
C31    C    0.423720    0.612810    0.301530
C32    C    0.387190    0.810910    0.301530
C33    C    0.189090    0.576280    0.301530
C34    C    0.576280    0.387190    0.301530
C35    C    0.612810    0.189090    0.301530
C36    C    0.810910    0.423720    0.301530
C37    C    0.434440    0.644480    0.380200
C38    C    0.355520    0.789960    0.380200
C39    C    0.210040    0.565560    0.380200
C40    C    0.565560    0.355520    0.380200
C41    C    0.644480    0.210040    0.380200
C42    C    0.789960    0.434440    0.380200
C43    C    0.412870    0.657660    0.392020
C44    C    0.342340    0.755210    0.392020
C45    C    0.244790    0.587130    0.392020
C46    C    0.587130    0.342340    0.392020
C47    C    0.657660    0.244790    0.392020
C48    C    0.755210    0.412870    0.392020
C49    C    0.447740    0.599840    0.297630
C50    C    0.400160    0.847900    0.297630
C51    C    0.152100    0.552260    0.297630
C52    C    0.552260    0.400160    0.297630
C53    C    0.599840    0.152100    0.297630
C54    C    0.847900    0.447740    0.297630
H1    H    0.309420    0.604530    0.320900
H2    H    0.395470    0.704890    0.320900
H3    H    0.295110    0.690580    0.320900
H4    H    0.690580    0.395470    0.320900
H5    H    0.604530    0.295110    0.320900
H6    H    0.704890    0.309420    0.320900
H7    H    0.344410    0.594120    0.170050
H8    H    0.405880    0.750290    0.170050
H9    H    0.249710    0.655590    0.170050
H10    H    0.655590    0.405880    0.170050
H11    H    0.594120    0.249710    0.170050
H12    H    0.750290    0.344410    0.170050
O1    O    0.382050    0.563080    0.142810
O2    O    0.436920    0.818970    0.142810
O3    O    0.181030    0.617950    0.142810
O4    O    0.617950    0.436920    0.142810
O5    O    0.563080    0.181030    0.142810
O6    O    0.818970    0.382050    0.142810
H13    H    0.459460    0.658620    0.438600
H14    H    0.341380    0.800840    0.438600
H15    H    0.199160    0.540540    0.438600
H16    H    0.540540    0.341380    0.438600
H17    H    0.658620    0.199160    0.438600
H18    H    0.800840    0.459460    0.438600
H19    H    0.421380    0.681190    0.463060
H20    H    0.318810    0.740190    0.463060
H21    H    0.259810    0.578620    0.463060
H22    H    0.578620    0.318810    0.463060
H23    H    0.681190    0.259810    0.463060
H24    H    0.740190    0.421380    0.463060
O7    O    0.477440    0.619270    0.262260
O8    O    0.380730    0.858170    0.262260
O9    O    0.141830    0.522560    0.262260
O10    O    0.522560    0.380730    0.262260
O11    O    0.619270    0.141830    0.262260
O12    O    0.858170    0.477440    0.262260
C55    C    0.347820    0.541330    0.088180
C56    C    0.458670    0.806490    0.088180
C57    C    0.193510    0.652180    0.088180
C58    C    0.652180    0.458670    0.088180
C59    C    0.541330    0.193510    0.088180
C60    C    0.806490    0.347820    0.088180
N1    N    0.437400    0.566840    0.338750
N2    N    0.433160    0.870560    0.338750
N3    N    0.129440    0.562600    0.338750
N4    N    0.562600    0.433160    0.338750
N5    N    0.566840    0.129440    0.338750
N6    N    0.870560    0.437400    0.338750
H25    H    0.340080    0.553880    0.487730
H26    H    0.446120    0.786200    0.487730
H27    H    0.213800    0.659920    0.487730
H28    H    0.659920    0.446120    0.487730
H29    H    0.553880    0.213800    0.487730
H30    H    0.786200    0.340080    0.487730
H31    H    0.330370    0.533330    0.203520
H32    H    0.466670    0.797040    0.203520
H33    H    0.202960    0.669630    0.203520
H34    H    0.669630    0.466670    0.203520
H35    H    0.533330    0.202960    0.203520
H36    H    0.797040    0.330370    0.203520
H37    H    0.345870    0.518320    0.026420
H38    H    0.481680    0.827550    0.026420
H39    H    0.172450    0.654130    0.026420
H40    H    0.654130    0.481680    0.026420
H41    H    0.518320    0.172450    0.026420
H42    H    0.827550    0.345870    0.026420
H43    H    0.412330    0.550430    0.376560
H44    H    0.449570    0.861900    0.376560
H45    H    0.138100    0.587670    0.376560
H46    H    0.587670    0.449570    0.376560
H47    H    0.550430    0.138100    0.376560
H48    H    0.861900    0.412330    0.376560
C61    C    0.297800    0.644780    0.819610
C62    C    0.355220    0.653020    0.819610
C63    C    0.346980    0.702200    0.819610
C64    C    0.702200    0.355220    0.819610
C65    C    0.644780    0.346980    0.819610
C66    C    0.653020    0.297800    0.819610
C67    C    0.319860    0.631610    0.820530
C68    C    0.368390    0.688250    0.820530
C69    C    0.311750    0.680140    0.820530
C70    C    0.680140    0.368390    0.820530
C71    C    0.631610    0.311750    0.820530
C72    C    0.688250    0.319860    0.820530
C73    C    0.260320    0.621560    0.815140
C74    C    0.378440    0.638760    0.815140
C75    C    0.361240    0.739680    0.815140
C76    C    0.739680    0.378440    0.815140
C77    C    0.621560    0.361240    0.815140
C78    C    0.638760    0.260320    0.815140
C79    C    0.368790    0.607470    0.733970
C80    C    0.392530    0.761320    0.733970
C81    C    0.238680    0.631210    0.733970
C82    C    0.631210    0.392530    0.733970
C83    C    0.607470    0.238680    0.733970
C84    C    0.761320    0.368790    0.733970
C85    C    0.390850    0.594050    0.727930
C86    C    0.405950    0.796800    0.727930
C87    C    0.203200    0.609150    0.727930
C88    C    0.609150    0.405950    0.727930
C89    C    0.594050    0.203200    0.727930
C90    C    0.796800    0.390850    0.727930
C91    C    0.423720    0.612810    0.801530
C92    C    0.387190    0.810910    0.801530
C93    C    0.189090    0.576280    0.801530
C94    C    0.576280    0.387190    0.801530
C95    C    0.612810    0.189090    0.801530
C96    C    0.810910    0.423720    0.801530
C97    C    0.434440    0.644480    0.880200
C98    C    0.355520    0.789960    0.880200
C99    C    0.210040    0.565560    0.880200
C100    C    0.565560    0.355520    0.880200
C101    C    0.644480    0.210040    0.880200
C102    C    0.789960    0.434440    0.880200
C103    C    0.412870    0.657660    0.892020
C104    C    0.342340    0.755210    0.892020
C105    C    0.244790    0.587130    0.892020
C106    C    0.587130    0.342340    0.892020
C107    C    0.657660    0.244790    0.892020
C108    C    0.755210    0.412870    0.892020
C109    C    0.447740    0.599840    0.797630
C110    C    0.400160    0.847900    0.797630
C111    C    0.152100    0.552260    0.797630
C112    C    0.552260    0.400160    0.797630
C113    C    0.599840    0.152100    0.797630
C114    C    0.847900    0.447740    0.797630
H49    H    0.309420    0.604530    0.820900
H50    H    0.395470    0.704890    0.820900
H51    H    0.295110    0.690580    0.820900
H52    H    0.690580    0.395470    0.820900
H53    H    0.604530    0.295110    0.820900
H54    H    0.704890    0.309420    0.820900
H55    H    0.344410    0.594120    0.670050
H56    H    0.405880    0.750290    0.670050
H57    H    0.249710    0.655590    0.670050
H58    H    0.655590    0.405880    0.670050
H59    H    0.594120    0.249710    0.670050
H60    H    0.750290    0.344410    0.670050
O13    O    0.382050    0.563080    0.642810
O14    O    0.436920    0.818970    0.642810
O15    O    0.181030    0.617950    0.642810
O16    O    0.617950    0.436920    0.642810
O17    O    0.563080    0.181030    0.642810
O18    O    0.818970    0.382050    0.642810
H61    H    0.459460    0.658620    0.938590
H62    H    0.341380    0.800840    0.938590
H63    H    0.199160    0.540540    0.938590
H64    H    0.540540    0.341380    0.938590
H65    H    0.658620    0.199160    0.938590
H66    H    0.800840    0.459460    0.938590
H67    H    0.421380    0.681190    0.963060
H68    H    0.318810    0.740190    0.963060
H69    H    0.259810    0.578620    0.963060
H70    H    0.578620    0.318810    0.963060
H71    H    0.681190    0.259810    0.963060
H72    H    0.740190    0.421380    0.963060
O19    O    0.477440    0.619270    0.762260
O20    O    0.380730    0.858170    0.762260
O21    O    0.141830    0.522560    0.762260
O22    O    0.522560    0.380730    0.762260
O23    O    0.619270    0.141830    0.762260
O24    O    0.858170    0.477440    0.762260
C115    C    0.347820    0.541330    0.588180
C116    C    0.458670    0.806490    0.588180
C117    C    0.193510    0.652180    0.588180
C118    C    0.652180    0.458670    0.588180
C119    C    0.541330    0.193510    0.588180
C120    C    0.806490    0.347820    0.588180
N7    N    0.437400    0.566840    0.838750
N8    N    0.433160    0.870560    0.838750
N9    N    0.129440    0.562600    0.838750
N10    N    0.562600    0.433160    0.838750
N11    N    0.566840    0.129440    0.838750
N12    N    0.870560    0.437400    0.838750
H73    H    0.340080    0.553880    0.987730
H74    H    0.446120    0.786200    0.987730
H75    H    0.213800    0.659920    0.987730
H76    H    0.659920    0.446120    0.987730
H77    H    0.553880    0.213800    0.987730
H78    H    0.786200    0.340080    0.987730
H79    H    0.330370    0.533330    0.703520
H80    H    0.466670    0.797040    0.703520
H81    H    0.202960    0.669630    0.703520
H82    H    0.669630    0.466670    0.703520
H83    H    0.533330    0.202960    0.703520
H84    H    0.797040    0.330370    0.703520
H85    H    0.345870    0.518320    0.526420
H86    H    0.481680    0.827550    0.526420
H87    H    0.172450    0.654130    0.526420
H88    H    0.654130    0.481680    0.526420
H89    H    0.518320    0.172450    0.526420
H90    H    0.827550    0.345870    0.526420
H91    H    0.412330    0.550430    0.876560
H92    H    0.449570    0.861900    0.876560
H93    H    0.138100    0.587670    0.876560
H94    H    0.587670    0.449570    0.876560
H95    H    0.550430    0.138100    0.876560
H96    H    0.861900    0.412330    0.876560
C121    C    0.467390    0.419910    0.400800
C122    C    0.532610    0.580090    0.400800
C123    C    0.451920    0.524410    0.381791
C124    C    0.548080    0.475590    0.381791
C125    C    0.476690    0.512460    0.384220
C126    C    0.523310    0.487540    0.384220
C127    C    0.464210    0.477510    0.386920
C128    C    0.535790    0.522490    0.386920
C129    C    0.485910    0.464230    0.387360
C130    C    0.514090    0.535770    0.387360
H97    H    0.437100    0.460200    0.388640
H98    H    0.562900    0.539800    0.388640
N13    N    0.460800    0.555360    0.341179
N14    N    0.539200    0.444640    0.341180
H99    H    0.425570    0.506500    0.410580
H100    H    0.574430    0.493500    0.410580
H101    H    0.513151    0.586697    0.399879
H102    H    0.549042    0.591574    0.289279
H103    H    0.546893    0.588935    0.521411
H104    H    0.486849    0.413303    0.399879
H105    H    0.450958    0.408426    0.289279
H106    H    0.453107    0.411065    0.521411
C131    C    0.419910    0.952520    0.400800
C132    C    0.580090    0.047480    0.400800
C133    C    0.524410    0.072490    0.381791
C134    C    0.475590    0.927510    0.381791
C135    C    0.512460    0.035770    0.384220
C136    C    0.487540    0.964230    0.384220
C137    C    0.477510    0.013300    0.386920
C138    C    0.522490    0.986700    0.386920
C139    C    0.464230    0.978320    0.387360
C140    C    0.535770    0.021680    0.387360
H107    H    0.460200    0.023100    0.388640
H108    H    0.539800    0.976900    0.388640
N15    N    0.555360    0.094560    0.341179
N16    N    0.444640    0.905440    0.341180
H109    H    0.506500    0.080930    0.410580
H110    H    0.493500    0.919070    0.410580
H111    H    0.586697    0.073546    0.399879
H112    H    0.591574    0.042532    0.289279
H113    H    0.588935    0.042042    0.521411
H114    H    0.413303    0.926454    0.399879
H115    H    0.408426    0.957468    0.289279
H116    H    0.411065    0.957958    0.521411
C141    C    0.952520    0.532610    0.400800
C142    C    0.047480    0.467390    0.400800
C143    C    0.072490    0.548080    0.381791
C144    C    0.927510    0.451920    0.381791
C145    C    0.035770    0.523310    0.384220
C146    C    0.964230    0.476690    0.384220
C147    C    0.013300    0.535790    0.386920
C148    C    0.986700    0.464210    0.386920
C149    C    0.978320    0.514090    0.387360
C150    C    0.021680    0.485910    0.387360
H117    H    0.023100    0.562900    0.388640
H118    H    0.976900    0.437100    0.388640
N17    N    0.094560    0.539200    0.341179
N18    N    0.905440    0.460800    0.341180
H119    H    0.080930    0.574430    0.410580
H120    H    0.919070    0.425570    0.410580
H121    H    0.073546    0.486849    0.399879
H122    H    0.042532    0.450958    0.289279
H123    H    0.042042    0.453107    0.521411
H124    H    0.926454    0.513151    0.399879
H125    H    0.957468    0.549042    0.289279
H126    H    0.957958    0.546893    0.521411
C151    C    0.467390    0.419910    0.900800
C152    C    0.532610    0.580090    0.900800
C153    C    0.451920    0.524410    0.881791
C154    C    0.548080    0.475590    0.881791
C155    C    0.476690    0.512460    0.884220
C156    C    0.523310    0.487540    0.884220
C157    C    0.464210    0.477510    0.886920
C158    C    0.535790    0.522490    0.886920
C159    C    0.485910    0.464230    0.887360
C160    C    0.514090    0.535770    0.887360
H127    H    0.437100    0.460200    0.888640
H128    H    0.562900    0.539800    0.888640
N19    N    0.460800    0.555360    0.841179
N20    N    0.539200    0.444640    0.841180
H129    H    0.425570    0.506500    0.910580
H130    H    0.574430    0.493500    0.910580
H131    H    0.513151    0.586697    0.899879
H132    H    0.549042    0.591574    0.789279
H133    H    0.546893    0.588935    0.021411
H134    H    0.486849    0.413303    0.899879
H135    H    0.450958    0.408426    0.789279
H136    H    0.453107    0.411065    0.021411
C161    C    0.419910    0.952520    0.900800
C162    C    0.580090    0.047480    0.900800
C163    C    0.524410    0.072490    0.881791
C164    C    0.475590    0.927510    0.881791
C165    C    0.512460    0.035770    0.884220
C166    C    0.487540    0.964230    0.884220
C167    C    0.477510    0.013300    0.886920
C168    C    0.522490    0.986700    0.886920
C169    C    0.464230    0.978320    0.887360
C170    C    0.535770    0.021680    0.887360
H137    H    0.460200    0.023100    0.888640
H138    H    0.539800    0.976900    0.888640
N21    N    0.555360    0.094560    0.841179
N22    N    0.444640    0.905440    0.841180
H139    H    0.506500    0.080930    0.910580
H140    H    0.493500    0.919070    0.910580
H141    H    0.586697    0.073546    0.899879
H142    H    0.591574    0.042532    0.789279
H143    H    0.588935    0.042042    0.021411
H144    H    0.413303    0.926454    0.899879
H145    H    0.408426    0.957468    0.789279
H146    H    0.411065    0.957958    0.021411
C171    C    0.952520    0.532610    0.900800
C172    C    0.047480    0.467390    0.900800
C173    C    0.072490    0.548080    0.881791
C174    C    0.927510    0.451920    0.881791
C175    C    0.035770    0.523310    0.884220
C176    C    0.964230    0.476690    0.884220
C177    C    0.013300    0.535790    0.886920
C178    C    0.986700    0.464210    0.886920
C179    C    0.978320    0.514090    0.887360
C180    C    0.021680    0.485910    0.887360
H147    H    0.023100    0.562900    0.888640
H148    H    0.976900    0.437100    0.888640
N23    N    0.094560    0.539200    0.841179
N24    N    0.905440    0.460800    0.841180
H149    H    0.080930    0.574430    0.910580
H150    H    0.919070    0.425570    0.910580
H151    H    0.073546    0.486849    0.899879
H152    H    0.042532    0.450958    0.789279
H153    H    0.042042    0.453107    0.021411
H154    H    0.926454    0.513151    0.899879
H155    H    0.957468    0.549042    0.789279
H156    H    0.957958    0.546893    0.021411

loop_
_geom_bond_atom_site_label_1
_geom_bond_atom_site_label_2
_geom_bond_distance
C1    C7    0.02571
C1    C9    0.03802
C1    C13    0.04432
C2    C7    0.04135
C2    C8    0.03762
C2    C14    0.02761
C3    C8    0.02557
C3    C9    0.04158
C3    C15    0.04035
C4    C10    0.02571
C4    C12    0.03802
C4    C16    0.04432
C5    C10    0.04135
C5    C11    0.03762
C5    C17    0.02761
C6    C11    0.02557
C6    C12    0.04158
C6    C18    0.04035
C7    H1    0.02903
C8    H2    0.03179
C9    H3    0.01965
C10    H4    0.02903
C11    H5    0.03179
C12    H6    0.01965
C13    C21    0.08456
C13    C45    0.08566
C14    C19    0.08753
C14    C43    0.08633
C15    C20    0.08964
C15    C44    0.08068
C16    C24    0.08456
C16    C48    0.08566
C17    C22    0.08753
C17    C46    0.08633
C18    C23    0.08964
C18    C47    0.08068
C19    C25    0.02652
C19    H7    0.06970
C20    C26    0.03841
C20    H8    0.06622
C21    C27    0.04221
C21    H9    0.06930
C22    C28    0.02652
C22    H10    0.06970
C23    C29    0.03841
C23    H11    0.06622
C24    C30    0.04221
C24    H12    0.06930
C25    C31    0.08276
C25    O1    0.09101
C26    C32    0.07725
C26    O2    0.09325
C27    C33    0.08183
C27    O3    0.08840
C28    C34    0.08276
C28    O4    0.09101
C29    C35    0.07725
C29    O5    0.09325
C30    C36    0.08183
C30    O6    0.08840
C31    C37    0.08548
C31    C49    0.02758
C32    C38    0.08735
C32    C50    0.03939
C33    C39    0.08211
C33    C51    0.04428
C34    C40    0.08548
C34    C52    0.02758
C35    C41    0.08735
C35    C53    0.03939
C36    C42    0.08211
C36    C54    0.04428
C37    C43    0.02791
C37    H13    0.06509
C38    C44    0.03900
C38    H14    0.06106
C39    C45    0.04257
C39    H15    0.06446
C40    C46    0.02791
C40    H16    0.06509
C41    C47    0.03900
C41    H17    0.06106
C42    C48    0.04257
C42    H18    0.06446
C43    H19    0.07532
C44    H20    0.07633
C45    H21    0.07311
C46    H22    0.07532
C47    H23    0.07633
C48    H24    0.07311
C49    O7    0.05011
C49    N1    0.05373
C50    O8    0.04164
C50    N2    0.05739
C51    O9    0.04731
C51    N3    0.04808
C52    O10    0.05011
C52    N4    0.05373
C53    O11    0.04164
C53    N5    0.05739
C54    O12    0.04731
C54    N6    0.04808
O1    C55    0.06804
O2    C56    0.06011
O3    C57    0.06566
O4    C58    0.06804
O5    C59    0.06011
O6    C60    0.06566
C55    H31    0.11693
C55    H37    0.06594
C55    H73    0.10153
C56    H32    0.11600
C56    H38    0.06919
C56    H74    0.10324
C57    H33    0.11703
C57    H39    0.06528
C57    H75    0.10277
C58    H34    0.11693
C58    H40    0.06594
C58    H76    0.10153
C59    H35    0.11600
C59    H41    0.06919
C59    H77    0.10324
C60    H36    0.11703
C60    H42    0.06528
C60    H78    0.10277
N1    H43    0.04824
N1    N13    0.02618
N2    H44    0.04212
N2    N16    0.03680
N3    H45    0.04619
N3    N17    0.04207
N4    H46    0.04824
N4    N14    0.02618
N5    H47    0.04212
N5    N15    0.03680
N6    H48    0.04619
N6    N18    0.04207
H25    C115    0.10153
H26    C116    0.10324
H27    C117    0.10277
H28    C118    0.10153
H29    C119    0.10324
H30    C120    0.10277
C61    C67    0.02571
C61    C69    0.03802
C61    C73    0.04432
C62    C67    0.04135
C62    C68    0.03762
C62    C74    0.02761
C63    C68    0.02557
C63    C69    0.04158
C63    C75    0.04035
C64    C70    0.02571
C64    C72    0.03802
C64    C76    0.04432
C65    C70    0.04135
C65    C71    0.03762
C65    C77    0.02761
C66    C71    0.02557
C66    C72    0.04158
C66    C78    0.04035
C67    H49    0.02903
C68    H50    0.03179
C69    H51    0.01965
C70    H52    0.02903
C71    H53    0.03179
C72    H54    0.01965
C73    C81    0.08456
C73    C105    0.08566
C74    C79    0.08753
C74    C103    0.08633
C75    C80    0.08964
C75    C104    0.08068
C76    C84    0.08456
C76    C108    0.08566
C77    C82    0.08753
C77    C106    0.08633
C78    C83    0.08964
C78    C107    0.08068
C79    C85    0.02652
C79    H55    0.06970
C80    C86    0.03841
C80    H56    0.06622
C81    C87    0.04221
C81    H57    0.06930
C82    C88    0.02652
C82    H58    0.06970
C83    C89    0.03841
C83    H59    0.06622
C84    C90    0.04221
C84    H60    0.06930
C85    C91    0.08276
C85    O13    0.09101
C86    C92    0.07725
C86    O14    0.09325
C87    C93    0.08183
C87    O15    0.08840
C88    C94    0.08276
C88    O16    0.09101
C89    C95    0.07725
C89    O17    0.09325
C90    C96    0.08183
C90    O18    0.08840
C91    C97    0.08548
C91    C109    0.02758
C92    C98    0.08735
C92    C110    0.03939
C93    C99    0.08211
C93    C111    0.04428
C94    C100    0.08548
C94    C112    0.02758
C95    C101    0.08735
C95    C113    0.03939
C96    C102    0.08211
C96    C114    0.04428
C97    C103    0.02791
C97    H61    0.06508
C98    C104    0.03900
C98    H62    0.06105
C99    C105    0.04257
C99    H63    0.06445
C100    C106    0.02791
C100    H64    0.06508
C101    C107    0.03900
C101    H65    0.06105
C102    C108    0.04257
C102    H66    0.06445
C103    H67    0.07532
C104    H68    0.07633
C105    H69    0.07311
C106    H70    0.07532
C107    H71    0.07633
C108    H72    0.07311
C109    O19    0.05011
C109    N7    0.05373
C110    O20    0.04164
C110    N8    0.05739
C111    O21    0.04731
C111    N9    0.04808
C112    O22    0.05011
C112    N10    0.05373
C113    O23    0.04164
C113    N11    0.05739
C114    O24    0.04731
C114    N12    0.04808
O13    C115    0.06804
O14    C116    0.06011
O15    C117    0.06566
O16    C118    0.06804
O17    C119    0.06011
O18    C120    0.06566
C115    H79    0.11693
C115    H85    0.06594
C116    H80    0.11600
C116    H86    0.06919
C117    H81    0.11703
C117    H87    0.06528
C118    H82    0.11693
C118    H88    0.06594
C119    H83    0.11600
C119    H89    0.06919
C120    H84    0.11703
C120    H90    0.06528
N7    H91    0.04824
N7    N19    0.02618
N8    H92    0.04212
N8    N22    0.03680
N9    H93    0.04619
N9    N23    0.04207
N10    H94    0.04824
N10    N20    0.02618
N11    H95    0.04212
N11    N21    0.03680
N12    H96    0.04619
N12    N24    0.04207
C121    C129    0.04988
C121    H104    0.02057
C121    H105    0.11331
C121    H106    0.12178
C122    C130    0.04988
C122    H101    0.02057
C122    H102    0.11331
C122    H103    0.12178
C123    C125    0.02761
C123    N13    0.05183
C123    H99    0.04294
C124    C126    0.02761
C124    N14    0.05183
C124    H100    0.04294
C125    C127    0.03721
C125    C130    0.04418
C126    C128    0.03721
C126    C129    0.04418
C127    C129    0.02544
C127    H97    0.03221
C128    C130    0.02544
C128    H98    0.03221
C131    C139    0.05301
C131    H114    0.02691
C131    H115    0.11222
C131    H116    0.12106
C132    C140    0.05301
C132    H111    0.02691
C132    H112    0.11222
C132    H113    0.12106
C133    C135    0.03869
C133    N15    0.05563
C133    H109    0.03494
C134    C136    0.03869
C134    N16    0.05563
C134    H110    0.03494
C135    C137    0.04164
C135    C140    0.02742
C136    C138    0.04164
C136    C139    0.02742
C137    C139    0.03742
C137    H107    0.01997
C138    C140    0.03742
C138    H108    0.01997
C141    C149    0.03449
C141    H124    0.03254
C141    H125    0.11283
C141    H126    0.12158
C142    C150    0.03449
C142    H121    0.03254
C142    H122    0.11283
C142    H123    0.12158
C143    C145    0.04436
C143    N17    0.04707
C143    H119    0.03993
C144    C146    0.04436
C144    N18    0.04707
C144    H120    0.03993
C145    C147    0.02584
C145    C150    0.04009
C146    C148    0.02584
C146    C149    0.04009
C147    C149    0.04117
C147    H117    0.02888
C148    C150    0.04117
C148    H118    0.02888
C151    C159    0.04988
C151    H134    0.02057
C151    H135    0.11331
C151    H136    0.12178
C152    C160    0.04988
C152    H131    0.02057
C152    H132    0.11331
C152    H133    0.12178
C153    C155    0.02761
C153    N19    0.05183
C153    H129    0.04294
C154    C156    0.02761
C154    N20    0.05183
C154    H130    0.04294
C155    C157    0.03721
C155    C160    0.04418
C156    C158    0.03721
C156    C159    0.04418
C157    C159    0.02544
C157    H127    0.03221
C158    C160    0.02544
C158    H128    0.03221
C161    C169    0.05301
C161    H144    0.02691
C161    H145    0.11222
C161    H146    0.12106
C162    C170    0.05301
C162    H141    0.02691
C162    H142    0.11222
C162    H143    0.12106
C163    C165    0.03869
C163    N21    0.05563
C163    H139    0.03494
C164    C166    0.03869
C164    N22    0.05563
C164    H140    0.03494
C165    C167    0.04164
C165    C170    0.02742
C166    C168    0.04164
C166    C169    0.02742
C167    C169    0.03742
C167    H137    0.01997
C168    C170    0.03742
C168    H138    0.01997
C171    C179    0.03449
C171    H154    0.03254
C171    H155    0.11283
C171    H156    0.12158
C172    C180    0.03449
C172    H151    0.03254
C172    H152    0.11283
C172    H153    0.12158
C173    C175    0.04436
C173    N23    0.04707
C173    H149    0.03993
C174    C176    0.04436
C174    N24    0.04707
C174    H150    0.03993
C175    C177    0.02584
C175    C180    0.04009
C176    C178    0.02584
C176    C179    0.04009
C177    C179    0.04117
C177    H147    0.02888
C178    C180    0.04117
C178    H148    0.02888
