data_crystal
 
_cell_length_a    45.40870
_cell_length_b    45.40870
_cell_length_c    8.92680
_cell_angle_alpha 90.00000
_cell_angle_beta  90.00000
_cell_angle_gamma 120.00000
 
_symmetry_space_group_name_Hall 'P 1'
_symmetry_space_group_name_H-M  'P 1'
 
loop_
_symmetry_equiv_pos_as_xyz
 'x,y,z' 
 
loop_
_atom_site_label
_atom_site_type_symbol
_atom_site_fract_x
_atom_site_fract_y
_atom_site_fract_z
C          C       0.29773   0.64425   0.30263 
C          C       0.35575   0.65348   0.30263 
C          C       0.34652   0.70227   0.30263 
C          C       0.70227   0.35575   0.30263 
C          C       0.64425   0.34652   0.30263 
C          C       0.65348   0.29773   0.30263 
C          C       0.32033   0.63155   0.30316 
C          C       0.36845   0.68878   0.30316 
C          C       0.31122   0.67967   0.30316 
C          C       0.67967   0.36845   0.30316 
C          C       0.63155   0.31122   0.30316 
C          C       0.68878   0.32033   0.30316 
C          C       0.26014   0.62056   0.29942 
C          C       0.37944   0.63958   0.29942 
C          C       0.36042   0.73986   0.29942 
C          C       0.73986   0.37944   0.29942 
C          C       0.62056   0.36042   0.29942 
C          C       0.63958   0.26014   0.29942 
C          C       0.37018   0.60863   0.22658 
C          C       0.39137   0.76155   0.22658 
C          C       0.23845   0.62982   0.22658 
C          C       0.62982   0.39137   0.22658 
C          C       0.60863   0.23845   0.22658 
C          C       0.76155   0.37018   0.22658 
C          C       0.39213   0.59494   0.22445 
C          C       0.40506   0.79719   0.22445 
C          C       0.20281   0.60787   0.22445 
C          C       0.60787   0.40506   0.22445 
C          C       0.59494   0.20281   0.22445 
C          C       0.79719   0.39213   0.22445 
C          C       0.42438   0.61343   0.29272 
C          C       0.38657   0.81095   0.29272 
C          C       0.18905   0.57562   0.29272 
C          C       0.57562   0.38657   0.29272 
C          C       0.61343   0.18905   0.29272 
C          C       0.81095   0.42438   0.29272 
C          C       0.43390   0.64463   0.36201 
C          C       0.35537   0.78927   0.36201 
C          C       0.21073   0.56610   0.36201 
C          C       0.56610   0.35537   0.36201 
C          C       0.64463   0.21073   0.36201 
C          C       0.78927   0.43390   0.36201 
C          C       0.41158   0.65726   0.36767 
C          C       0.34274   0.75432   0.36767 
C          C       0.24568   0.58842   0.36767 
C          C       0.58842   0.34274   0.36767 
C          C       0.65726   0.24568   0.36767 
C          C       0.75432   0.41158   0.36767 
C          C       0.44863   0.60061   0.29408 
C          C       0.39939   0.84802   0.29408 
C          C       0.15198   0.55137   0.29408 
C          C       0.55137   0.39939   0.29408 
C          C       0.60061   0.15198   0.29408 
C          C       0.84802   0.44863   0.29408 
C          C       0.45319   0.52586   0.38344 
C          C       0.47414   0.92733   0.38344 
C          C       0.07267   0.54681   0.38344 
C          C       0.54681   0.47414   0.38344 
C          C       0.52586   0.07267   0.38344 
C          C       0.92733   0.45319   0.38344 
C          C       0.47804   0.51373   0.38993 
C          C       0.48627   0.96431   0.38993 
C          C       0.03569   0.52196   0.38993 
C          C       0.52196   0.48627   0.38993 
C          C       0.51373   0.03569   0.38993 
C          C       0.96431   0.47804   0.38993 
C          C       0.46489   0.47846   0.39385 
C          C       0.52154   0.98643   0.39385 
C          C       0.01357   0.53511   0.39385 
C          C       0.53511   0.52154   0.39385 
C          C       0.47846   0.01357   0.39385 
C          C       0.98643   0.46489   0.39385 
C          C       0.48623   0.46437   0.39587 
C          C       0.53563   0.02186   0.39587 
C          C       0.97814   0.51377   0.39587 
C          C       0.51377   0.53563   0.39587 
C          C       0.46437   0.97814   0.39587 
C          C       0.02186   0.48623   0.39587 
H          H       0.31026   0.60439   0.30314 
H          H       0.39561   0.70587   0.30314 
H          H       0.29413   0.68974   0.30314 
H          H       0.68974   0.39561   0.30314 
H          H       0.60439   0.29413   0.30314 
H          H       0.70587   0.31026   0.30314 
H          H       0.34621   0.59578   0.16813 
H          H       0.40422   0.75043   0.16813 
H          H       0.24957   0.65379   0.16813 
H          H       0.65379   0.40422   0.16813 
H          H       0.59578   0.24957   0.16813 
H          H       0.75043   0.34621   0.16813 
O          O       0.38382   0.56414   0.15150 
O          O       0.43586   0.81968   0.15150 
O          O       0.18032   0.61618   0.15150 
O          O       0.61618   0.43586   0.15150 
O          O       0.56414   0.18032   0.15150 
O          O       0.81968   0.38382   0.15150 
H          H       0.45842   0.65880   0.41652 
H          H       0.34120   0.79962   0.41652 
H          H       0.20038   0.54158   0.41652 
H          H       0.54158   0.34120   0.41652 
H          H       0.65880   0.20038   0.41652 
H          H       0.79962   0.45842   0.41652 
H          H       0.41942   0.68059   0.42885 
H          H       0.31941   0.73883   0.42885 
H          H       0.26117   0.58058   0.42885 
H          H       0.58058   0.31941   0.42885 
H          H       0.68059   0.26117   0.42885 
H          H       0.73883   0.41942   0.42885 
C          C       0.47010   0.42631   0.41008 
C          C       0.57369   0.04379   0.41008 
C          C       0.95621   0.52990   0.41008 
C          C       0.52990   0.57369   0.41008 
C          C       0.42631   0.95621   0.41008 
C          C       0.04379   0.47010   0.41008 
H          H       0.43756   0.46167   0.39465 
H          H       0.53833   0.97589   0.39465 
H          H       0.02411   0.56244   0.39465 
H          H       0.56244   0.53833   0.39465 
H          H       0.46167   0.02411   0.39465 
H          H       0.97589   0.43756   0.39465 
O          O       0.47861   0.62026   0.26805 
O          O       0.37974   0.85835   0.26805 
O          O       0.14165   0.52139   0.26805 
O          O       0.52139   0.37974   0.26805 
O          O       0.62026   0.14165   0.26805 
O          O       0.85835   0.47861   0.26805 
C          C       0.34966   0.54252   0.10238 
C          C       0.45748   0.80714   0.10238 
C          C       0.19286   0.65034   0.10238 
C          C       0.65034   0.45748   0.10238 
C          C       0.54252   0.19286   0.10238 
C          C       0.80714   0.34966   0.10238 
N          N       0.43813   0.56752   0.32964 
N          N       0.43248   0.87061   0.32964 
N          N       0.12939   0.56187   0.32964 
N          N       0.56187   0.43248   0.32964 
N          N       0.56752   0.12939   0.32964 
N          N       0.87061   0.43813   0.32964 
N          N       0.46173   0.55618   0.33782 
N          N       0.44382   0.90555   0.33782 
N          N       0.09445   0.53827   0.33782 
N          N       0.53827   0.44382   0.33782 
N          N       0.55618   0.09445   0.33782 
N          N       0.90555   0.46173   0.33782 
H          H       0.42690   0.50833   0.41247 
H          H       0.49167   0.91857   0.41247 
H          H       0.08143   0.57310   0.41247 
H          H       0.57310   0.49167   0.41247 
H          H       0.50833   0.08143   0.41247 
H          H       0.91857   0.42690   0.41247 
H          H       0.34766   0.51915   0.05328 
H          H       0.48085   0.82851   0.05328 
H          H       0.17149   0.65234   0.05328 
H          H       0.65234   0.48085   0.05328 
H          H       0.51915   0.17149   0.05328 
H          H       0.82851   0.34766   0.05328 
H          H       0.34268   0.55511   0.01430 
H          H       0.44489   0.78757   0.01430 
H          H       0.21243   0.65732   0.01430 
H          H       0.65732   0.44489   0.01430 
H          H       0.55511   0.21243   0.01430 
H          H       0.78757   0.34268   0.01430 
H          H       0.33169   0.53500   0.19787 
H          H       0.46500   0.79669   0.19787 
H          H       0.20331   0.66831   0.19787 
H          H       0.66831   0.46500   0.19787 
H          H       0.53500   0.20331   0.19787 
H          H       0.79669   0.33169   0.19787 
H          H       0.41275   0.55099   0.35835 
H          H       0.44901   0.86176   0.35835 
H          H       0.13824   0.58725   0.35835 
H          H       0.58725   0.44901   0.35835 
H          H       0.55099   0.13824   0.35835 
H          H       0.86176   0.41275   0.35835 
H          H       0.48332   0.41985   0.49691 
H          H       0.58015   0.06347   0.49691 
H          H       0.93653   0.51668   0.49691 
H          H       0.51668   0.58015   0.49691 
H          H       0.41985   0.93653   0.49691 
H          H       0.06347   0.48332   0.49691 
H          H       0.47165   0.41508   0.30284 
H          H       0.58492   0.05657   0.30284 
H          H       0.94343   0.52835   0.30284 
H          H       0.52835   0.58492   0.30284 
H          H       0.41508   0.94343   0.30284 
H          H       0.05657   0.47165   0.30284 
H          H       0.44287   0.41421   0.44221 
H          H       0.58579   0.02866   0.44221 
H          H       0.97134   0.55713   0.44221 
H          H       0.55713   0.58579   0.44221 
H          H       0.41421   0.97134   0.44221 
H          H       0.02866   0.44287   0.44221 
C          C       0.29773   0.64425   0.80263 
C          C       0.35575   0.65348   0.80263 
C          C       0.34652   0.70227   0.80263 
C          C       0.70227   0.35575   0.80263 
C          C       0.64425   0.34652   0.80263 
C          C       0.65348   0.29773   0.80263 
C          C       0.32033   0.63155   0.80316 
C          C       0.36845   0.68878   0.80316 
C          C       0.31122   0.67967   0.80316 
C          C       0.67967   0.36845   0.80316 
C          C       0.63155   0.31122   0.80316 
C          C       0.68878   0.32033   0.80316 
C          C       0.26014   0.62056   0.79942 
C          C       0.37944   0.63958   0.79942 
C          C       0.36042   0.73986   0.79942 
C          C       0.73986   0.37944   0.79942 
C          C       0.62056   0.36042   0.79942 
C          C       0.63958   0.26014   0.79942 
C          C       0.37018   0.60863   0.72658 
C          C       0.39137   0.76155   0.72658 
C          C       0.23845   0.62982   0.72658 
C          C       0.62982   0.39137   0.72658 
C          C       0.60863   0.23845   0.72658 
C          C       0.76155   0.37018   0.72658 
C          C       0.39213   0.59494   0.72445 
C          C       0.40506   0.79719   0.72445 
C          C       0.20281   0.60787   0.72445 
C          C       0.60787   0.40506   0.72445 
C          C       0.59494   0.20281   0.72445 
C          C       0.79719   0.39213   0.72445 
C          C       0.42438   0.61343   0.79272 
C          C       0.38657   0.81095   0.79272 
C          C       0.18905   0.57562   0.79272 
C          C       0.57562   0.38657   0.79272 
C          C       0.61343   0.18905   0.79272 
C          C       0.81095   0.42438   0.79272 
C          C       0.43390   0.64463   0.86201 
C          C       0.35537   0.78927   0.86201 
C          C       0.21073   0.56610   0.86201 
C          C       0.56610   0.35537   0.86201 
C          C       0.64463   0.21073   0.86201 
C          C       0.78927   0.43390   0.86201 
C          C       0.41158   0.65726   0.86767 
C          C       0.34274   0.75432   0.86767 
C          C       0.24568   0.58842   0.86767 
C          C       0.58842   0.34274   0.86767 
C          C       0.65726   0.24568   0.86767 
C          C       0.75432   0.41158   0.86767 
C          C       0.44863   0.60061   0.79408 
C          C       0.39939   0.84802   0.79408 
C          C       0.15198   0.55137   0.79408 
C          C       0.55137   0.39939   0.79408 
C          C       0.60061   0.15198   0.79408 
C          C       0.84802   0.44863   0.79408 
C          C       0.45319   0.52586   0.88345 
C          C       0.47414   0.92733   0.88345 
C          C       0.07267   0.54681   0.88345 
C          C       0.54681   0.47414   0.88345 
C          C       0.52586   0.07267   0.88345 
C          C       0.92733   0.45319   0.88345 
C          C       0.47804   0.51373   0.88993 
C          C       0.48627   0.96431   0.88993 
C          C       0.03569   0.52196   0.88993 
C          C       0.52196   0.48627   0.88993 
C          C       0.51373   0.03569   0.88993 
C          C       0.96431   0.47804   0.88993 
C          C       0.46489   0.47846   0.89385 
C          C       0.52154   0.98643   0.89385 
C          C       0.01357   0.53511   0.89385 
C          C       0.53511   0.52154   0.89385 
C          C       0.47846   0.01357   0.89385 
C          C       0.98643   0.46489   0.89385 
C          C       0.48623   0.46437   0.89587 
C          C       0.53563   0.02186   0.89587 
C          C       0.97814   0.51377   0.89587 
C          C       0.51377   0.53563   0.89587 
C          C       0.46437   0.97814   0.89587 
C          C       0.02186   0.48623   0.89587 
H          H       0.31026   0.60439   0.80314 
H          H       0.39561   0.70587   0.80314 
H          H       0.29413   0.68974   0.80314 
H          H       0.68974   0.39561   0.80314 
H          H       0.60439   0.29413   0.80314 
H          H       0.70587   0.31026   0.80314 
H          H       0.34621   0.59578   0.66813 
H          H       0.40422   0.75043   0.66813 
H          H       0.24957   0.65379   0.66813 
H          H       0.65379   0.40422   0.66813 
H          H       0.59578   0.24957   0.66813 
H          H       0.75043   0.34621   0.66813 
O          O       0.38382   0.56414   0.65150 
O          O       0.43586   0.81968   0.65150 
O          O       0.18032   0.61618   0.65150 
O          O       0.61618   0.43586   0.65150 
O          O       0.56414   0.18032   0.65150 
O          O       0.81968   0.38382   0.65150 
H          H       0.45842   0.65880   0.91652 
H          H       0.34120   0.79962   0.91652 
H          H       0.20038   0.54158   0.91652 
H          H       0.54158   0.34120   0.91652 
H          H       0.65880   0.20038   0.91652 
H          H       0.79962   0.45842   0.91652 
H          H       0.41942   0.68059   0.92885 
H          H       0.31941   0.73883   0.92885 
H          H       0.26117   0.58058   0.92885 
H          H       0.58058   0.31941   0.92885 
H          H       0.68059   0.26117   0.92885 
H          H       0.73883   0.41942   0.92885 
C          C       0.47010   0.42631   0.91007 
C          C       0.57369   0.04379   0.91007 
C          C       0.95621   0.52990   0.91007 
C          C       0.52990   0.57369   0.91007 
C          C       0.42631   0.95621   0.91007 
C          C       0.04379   0.47010   0.91007 
H          H       0.43756   0.46167   0.89465 
H          H       0.53833   0.97589   0.89465 
H          H       0.02411   0.56244   0.89465 
H          H       0.56244   0.53833   0.89465 
H          H       0.46167   0.02411   0.89465 
H          H       0.97589   0.43756   0.89465 
O          O       0.47861   0.62026   0.76806 
O          O       0.37974   0.85835   0.76806 
O          O       0.14165   0.52139   0.76806 
O          O       0.52139   0.37974   0.76806 
O          O       0.62026   0.14165   0.76806 
O          O       0.85835   0.47861   0.76806 
C          C       0.34966   0.54252   0.60238 
C          C       0.45748   0.80714   0.60238 
C          C       0.19286   0.65034   0.60238 
C          C       0.65034   0.45748   0.60238 
C          C       0.54252   0.19286   0.60238 
C          C       0.80714   0.34966   0.60238 
N          N       0.43813   0.56752   0.82964 
N          N       0.43248   0.87061   0.82964 
N          N       0.12939   0.56187   0.82964 
N          N       0.56187   0.43248   0.82964 
N          N       0.56752   0.12939   0.82964 
N          N       0.87061   0.43813   0.82964 
N          N       0.46173   0.55618   0.83782 
N          N       0.44382   0.90555   0.83782 
N          N       0.09445   0.53827   0.83782 
N          N       0.53827   0.44382   0.83782 
N          N       0.55618   0.09445   0.83782 
N          N       0.90555   0.46173   0.83782 
H          H       0.42690   0.50833   0.91247 
H          H       0.49167   0.91857   0.91247 
H          H       0.08143   0.57310   0.91247 
H          H       0.57310   0.49167   0.91247 
H          H       0.50833   0.08143   0.91247 
H          H       0.91857   0.42690   0.91247 
H          H       0.34766   0.51915   0.55329 
H          H       0.48085   0.82851   0.55329 
H          H       0.17149   0.65234   0.55329 
H          H       0.65234   0.48085   0.55329 
H          H       0.51915   0.17149   0.55329 
H          H       0.82851   0.34766   0.55329 
H          H       0.34268   0.55511   0.51429 
H          H       0.44489   0.78757   0.51429 
H          H       0.21243   0.65732   0.51429 
H          H       0.65732   0.44489   0.51429 
H          H       0.55511   0.21243   0.51429 
H          H       0.78757   0.34268   0.51429 
H          H       0.33169   0.53500   0.69787 
H          H       0.46500   0.79669   0.69787 
H          H       0.20331   0.66831   0.69787 
H          H       0.66831   0.46500   0.69787 
H          H       0.53500   0.20331   0.69787 
H          H       0.79669   0.33169   0.69787 
H          H       0.41275   0.55099   0.85835 
H          H       0.44901   0.86176   0.85835 
H          H       0.13824   0.58725   0.85835 
H          H       0.58725   0.44901   0.85835 
H          H       0.55099   0.13824   0.85835 
H          H       0.86176   0.41275   0.85835 
H          H       0.48332   0.41985   0.99691 
H          H       0.58015   0.06347   0.99691 
H          H       0.93653   0.51668   0.99691 
H          H       0.51668   0.58015   0.99691 
H          H       0.41985   0.93653   0.99691 
H          H       0.06347   0.48332   0.99691 
H          H       0.47165   0.41508   0.80284 
H          H       0.58492   0.05657   0.80284 
H          H       0.94343   0.52835   0.80284 
H          H       0.52835   0.58492   0.80284 
H          H       0.41508   0.94343   0.80284 
H          H       0.05657   0.47165   0.80284 
H          H       0.44287   0.41421   0.94221 
H          H       0.58579   0.02866   0.94221 
H          H       0.97134   0.55713   0.94221 
H          H       0.55713   0.58579   0.94221 
H          H       0.41421   0.97134   0.94221 
H          H       0.02866   0.44287   0.94221 
