data_crystal
 
_cell_length_a    45.29320
_cell_length_b    45.29320
_cell_length_c    8.64280
_cell_angle_alpha 90.00000
_cell_angle_beta  90.00000
_cell_angle_gamma 120.00000
 
_symmetry_space_group_name_Hall 'P 1'
_symmetry_space_group_name_H-M  'P 1'
 
loop_
_symmetry_equiv_pos_as_xyz
 'x,y,z' 
 
loop_
_atom_site_label
_atom_site_type_symbol
_atom_site_fract_x
_atom_site_fract_y
_atom_site_fract_z
C          C       0.29754   0.64451   0.29923 
C          C       0.35549   0.65303   0.29923 
C          C       0.34697   0.70246   0.29923 
C          C       0.70246   0.35549   0.29923 
C          C       0.64451   0.34697   0.29923 
C          C       0.65303   0.29754   0.29923 
C          C       0.31989   0.63141   0.29986 
C          C       0.36859   0.68848   0.29986 
C          C       0.31152   0.68011   0.29986 
C          C       0.68011   0.36859   0.29986 
C          C       0.63141   0.31152   0.29986 
C          C       0.68848   0.31989   0.29986 
C          C       0.25971   0.62108   0.29548 
C          C       0.37892   0.63863   0.29548 
C          C       0.36137   0.74029   0.29548 
C          C       0.74029   0.37892   0.29548 
C          C       0.62108   0.36137   0.29548 
C          C       0.63863   0.25971   0.29548 
C          C       0.36883   0.60694   0.22479 
C          C       0.39306   0.76189   0.22479 
C          C       0.23811   0.63117   0.22479 
C          C       0.63117   0.39306   0.22479 
C          C       0.60694   0.23811   0.22479 
C          C       0.76189   0.36883   0.22479 
C          C       0.39052   0.59284   0.22221 
C          C       0.40716   0.79768   0.22221 
C          C       0.20232   0.60948   0.22221 
C          C       0.60948   0.40716   0.22221 
C          C       0.59284   0.20232   0.22221 
C          C       0.79768   0.39052   0.22221 
C          C       0.42341   0.61168   0.28706 
C          C       0.38832   0.81173   0.28706 
C          C       0.18827   0.57659   0.28706 
C          C       0.57659   0.38832   0.28706 
C          C       0.61168   0.18827   0.28706 
C          C       0.81173   0.42341   0.28706 
C          C       0.43377   0.64357   0.35395 
C          C       0.35643   0.79020   0.35395 
C          C       0.20980   0.56623   0.35395 
C          C       0.56623   0.35643   0.35395 
C          C       0.64357   0.20980   0.35395 
C          C       0.79020   0.43377   0.35395 
C          C       0.41169   0.65657   0.36088 
C          C       0.34343   0.75512   0.36088 
C          C       0.24488   0.58831   0.36088 
C          C       0.58831   0.34343   0.36088 
C          C       0.65657   0.24488   0.36088 
C          C       0.75512   0.41169   0.36088 
C          C       0.44751   0.59855   0.28771 
C          C       0.40145   0.84896   0.28771 
C          C       0.15104   0.55249   0.28771 
C          C       0.55249   0.40145   0.28771 
C          C       0.59855   0.15104   0.28771 
C          C       0.84896   0.44751   0.28771 
C          C       0.45266   0.52517   0.40370 
C          C       0.47483   0.92749   0.40370 
C          C       0.07251   0.54734   0.40370 
C          C       0.54734   0.47483   0.40370 
C          C       0.52517   0.07251   0.40370 
C          C       0.92749   0.45266   0.40370 
C          C       0.47761   0.51327   0.41583 
C          C       0.48673   0.96434   0.41583 
C          C       0.03566   0.52239   0.41583 
C          C       0.52239   0.48673   0.41583 
C          C       0.51327   0.03566   0.41583 
C          C       0.96434   0.47761   0.41583 
C          C       0.46486   0.47798   0.41852 
C          C       0.52202   0.98688   0.41852 
C          C       0.01312   0.53514   0.41852 
C          C       0.53514   0.52202   0.41852 
C          C       0.47798   0.01312   0.41852 
C          C       0.98688   0.46486   0.41852 
C          C       0.48665   0.46447   0.42312 
C          C       0.53553   0.02218   0.42312 
C          C       0.97782   0.51335   0.42312 
C          C       0.51335   0.53553   0.42312 
C          C       0.46447   0.97782   0.42312 
C          C       0.02218   0.48665   0.42312 
H          H       0.30950   0.60417   0.30000 
H          H       0.39583   0.70533   0.30000 
H          H       0.29467   0.69050   0.30000 
H          H       0.69050   0.39583   0.30000 
H          H       0.60417   0.29467   0.30000 
H          H       0.70533   0.30950   0.30000 
H          H       0.34441   0.59378   0.16805 
H          H       0.40622   0.75063   0.16805 
H          H       0.24937   0.65559   0.16805 
H          H       0.65559   0.40622   0.16805 
H          H       0.59378   0.24937   0.16805 
H          H       0.75063   0.34441   0.16805 
O          O       0.38130   0.56125   0.15176 
O          O       0.43875   0.82005   0.15176 
O          O       0.17995   0.61870   0.15176 
O          O       0.61870   0.43875   0.15176 
O          O       0.56125   0.17995   0.15176 
O          O       0.82005   0.38130   0.15176 
H          H       0.45878   0.65802   0.40613 
H          H       0.34198   0.80076   0.40613 
H          H       0.19924   0.54122   0.40613 
H          H       0.54122   0.34198   0.40613 
H          H       0.65802   0.19924   0.40613 
H          H       0.80076   0.45878   0.40613 
H          H       0.42028   0.68041   0.42126 
H          H       0.31959   0.73987   0.42126 
H          H       0.26013   0.57972   0.42126 
H          H       0.57972   0.31959   0.42126 
H          H       0.68041   0.26013   0.42126 
H          H       0.73987   0.42028   0.42126 
O          O       0.47171   0.42916   0.44033 
O          O       0.57084   0.04255   0.44033 
O          O       0.95745   0.52829   0.44033 
O          O       0.52829   0.57084   0.44033 
O          O       0.42916   0.95745   0.44033 
O          O       0.04255   0.47171   0.44033 
H          H       0.43757   0.46059   0.41886 
H          H       0.53941   0.97698   0.41886 
H          H       0.02302   0.56243   0.41886 
H          H       0.56243   0.53941   0.41886 
H          H       0.46059   0.02302   0.41886 
H          H       0.97698   0.43757   0.41886 
O          O       0.47740   0.61786   0.25596 
O          O       0.38214   0.85954   0.25596 
O          O       0.14046   0.52260   0.25596 
O          O       0.52260   0.38214   0.25596 
O          O       0.61786   0.14046   0.25596 
O          O       0.85954   0.47740   0.25596 
C          C       0.34696   0.53991   0.10150 
C          C       0.46009   0.80705   0.10150 
C          C       0.19295   0.65304   0.10150 
C          C       0.65304   0.46009   0.10150 
C          C       0.53991   0.19295   0.10150 
C          C       0.80705   0.34696   0.10150 
N          N       0.43709   0.56569   0.33022 
N          N       0.43431   0.87140   0.33022 
N          N       0.12860   0.56291   0.33022 
N          N       0.56291   0.43431   0.33022 
N          N       0.56569   0.12860   0.33022 
N          N       0.87140   0.43709   0.33022 
N          N       0.46083   0.55451   0.34376 
N          N       0.44549   0.90632   0.34376 
N          N       0.09368   0.53917   0.34376 
N          N       0.53917   0.44549   0.34376 
N          N       0.55451   0.09368   0.34376 
N          N       0.90632   0.46083   0.34376 
H          H       0.42656   0.50818   0.43961 
H          H       0.49182   0.91838   0.43961 
H          H       0.08162   0.57344   0.43961 
H          H       0.57344   0.49182   0.43961 
H          H       0.50818   0.08162   0.43961 
H          H       0.91838   0.42656   0.43961 
H          H       0.34461   0.51637   0.05029 
H          H       0.48363   0.82824   0.05029 
H          H       0.17176   0.65539   0.05029 
H          H       0.65539   0.48363   0.05029 
H          H       0.51637   0.17176   0.05029 
H          H       0.82824   0.34461   0.05029 
H          H       0.34006   0.55277   0.01154 
H          H       0.44723   0.78729   0.01154 
H          H       0.21271   0.65994   0.01154 
H          H       0.65994   0.44723   0.01154 
H          H       0.55277   0.21271   0.01154 
H          H       0.78729   0.34006   0.01154 
H          H       0.32896   0.53247   0.19990 
H          H       0.46753   0.79649   0.19990 
H          H       0.20351   0.67104   0.19990 
H          H       0.67104   0.46753   0.19990 
H          H       0.53247   0.20351   0.19990 
H          H       0.79649   0.32896   0.19990 
H          H       0.41178   0.54945   0.36282 
H          H       0.45055   0.86233   0.36282 
H          H       0.13767   0.58822   0.36282 
H          H       0.58822   0.45055   0.36282 
H          H       0.54945   0.13767   0.36282 
H          H       0.86233   0.41178   0.36282 
C          C       0.29754   0.64451   0.79923 
C          C       0.35549   0.65303   0.79923 
C          C       0.34697   0.70246   0.79923 
C          C       0.70246   0.35549   0.79923 
C          C       0.64451   0.34697   0.79923 
C          C       0.65303   0.29754   0.79923 
C          C       0.31989   0.63141   0.79987 
C          C       0.36859   0.68848   0.79987 
C          C       0.31152   0.68011   0.79987 
C          C       0.68011   0.36859   0.79987 
C          C       0.63141   0.31152   0.79987 
C          C       0.68848   0.31989   0.79987 
C          C       0.25971   0.62108   0.79548 
C          C       0.37892   0.63863   0.79548 
C          C       0.36137   0.74029   0.79548 
C          C       0.74029   0.37892   0.79548 
C          C       0.62108   0.36137   0.79548 
C          C       0.63863   0.25971   0.79548 
C          C       0.36883   0.60694   0.72479 
C          C       0.39306   0.76189   0.72479 
C          C       0.23811   0.63117   0.72479 
C          C       0.63117   0.39306   0.72479 
C          C       0.60694   0.23811   0.72479 
C          C       0.76189   0.36883   0.72479 
C          C       0.39052   0.59284   0.72221 
C          C       0.40716   0.79768   0.72221 
C          C       0.20232   0.60948   0.72221 
C          C       0.60948   0.40716   0.72221 
C          C       0.59284   0.20232   0.72221 
C          C       0.79768   0.39052   0.72221 
C          C       0.42341   0.61168   0.78706 
C          C       0.38832   0.81173   0.78706 
C          C       0.18827   0.57659   0.78706 
C          C       0.57659   0.38832   0.78706 
C          C       0.61168   0.18827   0.78706 
C          C       0.81173   0.42341   0.78706 
C          C       0.43377   0.64357   0.85394 
C          C       0.35643   0.79020   0.85394 
C          C       0.20980   0.56623   0.85394 
C          C       0.56623   0.35643   0.85394 
C          C       0.64357   0.20980   0.85394 
C          C       0.79020   0.43377   0.85394 
C          C       0.41169   0.65657   0.86088 
C          C       0.34343   0.75512   0.86088 
C          C       0.24488   0.58831   0.86088 
C          C       0.58831   0.34343   0.86088 
C          C       0.65657   0.24488   0.86088 
C          C       0.75512   0.41169   0.86088 
C          C       0.44751   0.59855   0.78772 
C          C       0.40145   0.84896   0.78772 
C          C       0.15104   0.55249   0.78772 
C          C       0.55249   0.40145   0.78772 
C          C       0.59855   0.15104   0.78772 
C          C       0.84896   0.44751   0.78772 
C          C       0.45266   0.52517   0.90370 
C          C       0.47483   0.92749   0.90370 
C          C       0.07251   0.54734   0.90370 
C          C       0.54734   0.47483   0.90370 
C          C       0.52517   0.07251   0.90370 
C          C       0.92749   0.45266   0.90370 
C          C       0.47761   0.51327   0.91583 
C          C       0.48673   0.96434   0.91583 
C          C       0.03566   0.52239   0.91583 
C          C       0.52239   0.48673   0.91583 
C          C       0.51327   0.03566   0.91583 
C          C       0.96434   0.47761   0.91583 
C          C       0.46486   0.47798   0.91852 
C          C       0.52202   0.98688   0.91852 
C          C       0.01312   0.53514   0.91852 
C          C       0.53514   0.52202   0.91852 
C          C       0.47798   0.01312   0.91852 
C          C       0.98688   0.46486   0.91852 
C          C       0.48665   0.46447   0.92312 
C          C       0.53553   0.02218   0.92312 
C          C       0.97782   0.51335   0.92312 
C          C       0.51335   0.53553   0.92312 
C          C       0.46447   0.97782   0.92312 
C          C       0.02218   0.48665   0.92312 
H          H       0.30950   0.60417   0.80000 
H          H       0.39583   0.70533   0.80000 
H          H       0.29467   0.69050   0.80000 
H          H       0.69050   0.39583   0.80000 
H          H       0.60417   0.29467   0.80000 
H          H       0.70533   0.30950   0.80000 
H          H       0.34441   0.59378   0.66805 
H          H       0.40622   0.75063   0.66805 
H          H       0.24937   0.65559   0.66805 
H          H       0.65559   0.40622   0.66805 
H          H       0.59378   0.24937   0.66805 
H          H       0.75063   0.34441   0.66805 
O          O       0.38130   0.56125   0.65175 
O          O       0.43875   0.82005   0.65175 
O          O       0.17995   0.61870   0.65175 
O          O       0.61870   0.43875   0.65175 
O          O       0.56125   0.17995   0.65175 
O          O       0.82005   0.38130   0.65175 
H          H       0.45878   0.65802   0.90612 
H          H       0.34198   0.80076   0.90612 
H          H       0.19924   0.54122   0.90612 
H          H       0.54122   0.34198   0.90612 
H          H       0.65802   0.19924   0.90612 
H          H       0.80076   0.45878   0.90612 
H          H       0.42028   0.68041   0.92126 
H          H       0.31959   0.73987   0.92126 
H          H       0.26013   0.57972   0.92126 
H          H       0.57972   0.31959   0.92126 
H          H       0.68041   0.26013   0.92126 
H          H       0.73987   0.42028   0.92126 
O          O       0.47171   0.42916   0.94034 
O          O       0.57084   0.04255   0.94034 
O          O       0.95745   0.52829   0.94034 
O          O       0.52829   0.57084   0.94034 
O          O       0.42916   0.95745   0.94034 
O          O       0.04255   0.47171   0.94034 
H          H       0.43757   0.46059   0.91886 
H          H       0.53941   0.97698   0.91886 
H          H       0.02302   0.56243   0.91886 
H          H       0.56243   0.53941   0.91886 
H          H       0.46059   0.02302   0.91886 
H          H       0.97698   0.43757   0.91886 
O          O       0.47740   0.61786   0.75596 
O          O       0.38214   0.85954   0.75596 
O          O       0.14046   0.52260   0.75596 
O          O       0.52260   0.38214   0.75596 
O          O       0.61786   0.14046   0.75596 
O          O       0.85954   0.47740   0.75596 
C          C       0.34696   0.53991   0.60150 
C          C       0.46009   0.80705   0.60150 
C          C       0.19295   0.65304   0.60150 
C          C       0.65304   0.46009   0.60150 
C          C       0.53991   0.19295   0.60150 
C          C       0.80705   0.34696   0.60150 
N          N       0.43709   0.56569   0.83022 
N          N       0.43431   0.87140   0.83022 
N          N       0.12860   0.56291   0.83022 
N          N       0.56291   0.43431   0.83022 
N          N       0.56569   0.12860   0.83022 
N          N       0.87140   0.43709   0.83022 
N          N       0.46083   0.55451   0.84376 
N          N       0.44549   0.90632   0.84376 
N          N       0.09368   0.53917   0.84376 
N          N       0.53917   0.44549   0.84376 
N          N       0.55451   0.09368   0.84376 
N          N       0.90632   0.46083   0.84376 
H          H       0.42656   0.50818   0.93961 
H          H       0.49182   0.91838   0.93961 
H          H       0.08162   0.57344   0.93961 
H          H       0.57344   0.49182   0.93961 
H          H       0.50818   0.08162   0.93961 
H          H       0.91838   0.42656   0.93961 
H          H       0.34461   0.51637   0.55029 
H          H       0.48363   0.82824   0.55029 
H          H       0.17176   0.65539   0.55029 
H          H       0.65539   0.48363   0.55029 
H          H       0.51637   0.17176   0.55029 
H          H       0.82824   0.34461   0.55029 
H          H       0.34006   0.55277   0.51154 
H          H       0.44723   0.78729   0.51154 
H          H       0.21271   0.65994   0.51154 
H          H       0.65994   0.44723   0.51154 
H          H       0.55277   0.21271   0.51154 
H          H       0.78729   0.34006   0.51154 
H          H       0.32896   0.53247   0.69990 
H          H       0.46753   0.79649   0.69990 
H          H       0.20351   0.67104   0.69990 
H          H       0.67104   0.46753   0.69990 
H          H       0.53247   0.20351   0.69990 
H          H       0.79649   0.32896   0.69990 
H          H       0.41178   0.54945   0.86282 
H          H       0.45055   0.86233   0.86282 
H          H       0.13767   0.58822   0.86282 
H          H       0.58822   0.45055   0.86282 
H          H       0.54945   0.13767   0.86282 
H          H       0.86233   0.41178   0.86282 
