data_Star-COF-3-total_ff
_audit_creation_date              0000-00-00
_audit_creation_method            'LanYouShi'
_symmetry_space_group_name_H-M    'P1'
_cell_length_a                    46.8300018
_cell_length_b                    46.8300018
_cell_length_c                    3.4100001
_cell_angle_alpha                 90.0000000
_cell_angle_beta                  90.0000000
_cell_angle_gamma                 120.0000000
loop_
_atom_site_label
_atom_site_type_symbol
_atom_site_fract_x
_atom_site_fract_y
_atom_site_fract_z
_atom_site_U_iso_or_equiv
_atom_site_adp_type
_atom_site_occupancy
        C1          C  0.0188298  0.5094149  0.5000000    0.00000       Uiso       1.00
        C2          C  0.0894717  0.5447358  0.5000000    0.00000       Uiso       1.00
        B1          B  0.1284486  0.5642243  0.5000000    0.00000       Uiso       1.00
        C3          C  0.4905851  0.5094149  0.5000000    0.00000       Uiso       1.00
        C4          C  0.4552642  0.5447358  0.5000000    0.00000       Uiso       1.00
        B2          B  0.4357757  0.5642243  0.5000000    0.00000       Uiso       1.00
        C5          C  0.4905851  0.9811702  0.5000000    0.00000       Uiso       1.00
        C6          C  0.4552641  0.9105282  0.5000000    0.00000       Uiso       1.00
        B3          B  0.4357757  0.8715513  0.5000000    0.00000       Uiso       1.00
        C7          C  0.9811702  0.4905851  0.5000000    0.00000       Uiso       1.00
        C8          C  0.9105282  0.4552641  0.5000000    0.00000       Uiso       1.00
        B4          B  0.8715513  0.4357757  0.5000000    0.00000       Uiso       1.00
        C9          C  0.5094149  0.4905851  0.5000000    0.00000       Uiso       1.00
       C10          C  0.5447358  0.4552641  0.5000000    0.00000       Uiso       1.00
        B5          B  0.5642243  0.4357757  0.5000000    0.00000       Uiso       1.00
       C11          C  0.5094149  0.0188297  0.5000000    0.00000       Uiso       1.00
       C12          C  0.5447358  0.0894717  0.5000000    0.00000       Uiso       1.00
        B6          B  0.5642243  0.1284486  0.5000000    0.00000       Uiso       1.00
       C13          C  0.0372695  0.5443828  0.5000000    0.00000       Uiso       1.00
       C14          C  0.0718628  0.5616143  0.5000000    0.00000       Uiso       1.00
       C15          C  0.1800394  0.6047505  0.5000000    0.00000       Uiso       1.00
       C16          C  0.2095282  0.6351977  0.5000000    0.00000       Uiso       1.00
       C17          C  0.2094387  0.6651532  0.5000000    0.00000       Uiso       1.00
       C18          C  0.2390499  0.6955327  0.5000000    0.00000       Uiso       1.00
       C19          C  0.2699785  0.6971455  0.5000000    0.00000       Uiso       1.00
       C20          C  0.2692126  0.6664979  0.5000000    0.00000       Uiso       1.00
       C21          C  0.2398831  0.6354045  0.5000000    0.00000       Uiso       1.00
        O1          O  0.1483625  0.6003229  0.5000000    0.00000       Uiso       1.00
        H1          H  0.0257027  0.5592700  0.5000000    0.00000       Uiso       1.00
        H2          H  0.0848227  0.5883242  0.5000000    0.00000       Uiso       1.00
        H3          H  0.1863135  0.6651598  0.5000000    0.00000       Uiso       1.00
        H4          H  0.2370386  0.7174665  0.5000000    0.00000       Uiso       1.00
        H5          H  0.2916498  0.6667448  0.5000000    0.00000       Uiso       1.00
       C22          C  0.4556172  0.4928868  0.5000000    0.00000       Uiso       1.00
       C23          C  0.4383857  0.5102485  0.5000000    0.00000       Uiso       1.00
       C24          C  0.3952495  0.5752889  0.5000000    0.00000       Uiso       1.00
       C25          C  0.3648023  0.5743304  0.5000000    0.00000       Uiso       1.00
       C26          C  0.3348467  0.5442854  0.5000000    0.00000       Uiso       1.00
       C27          C  0.3044672  0.5435171  0.5000000    0.00000       Uiso       1.00
       C28          C  0.3028544  0.5728329  0.5000000    0.00000       Uiso       1.00
       C29          C  0.3335021  0.6027147  0.5000000    0.00000       Uiso       1.00
       C30          C  0.3645955  0.6044787  0.5000000    0.00000       Uiso       1.00
        O2          O  0.3996771  0.5480396  0.5000000    0.00000       Uiso       1.00
        H6          H  0.4407300  0.4664327  0.5000000    0.00000       Uiso       1.00
        H7          H  0.4116757  0.4964984  0.5000000    0.00000       Uiso       1.00
        H8          H  0.3348402  0.5211537  0.5000000    0.00000       Uiso       1.00
        H9          H  0.2825334  0.5195720  0.5000000    0.00000       Uiso       1.00
       H10          H  0.3332552  0.6249050  0.5000000    0.00000       Uiso       1.00
       C31          C  0.5071132  0.9627304  0.5000000    0.00000       Uiso       1.00
       C32          C  0.4897515  0.9281371  0.5000000    0.00000       Uiso       1.00
       C33          C  0.4247111  0.8199606  0.5000000    0.00000       Uiso       1.00
       C34          C  0.4256695  0.7904717  0.5000000    0.00000       Uiso       1.00
       C35          C  0.4557146  0.7905613  0.5000000    0.00000       Uiso       1.00
       C36          C  0.4564829  0.7609501  0.5000000    0.00000       Uiso       1.00
       C37          C  0.4271670  0.7300215  0.5000000    0.00000       Uiso       1.00
       C38          C  0.3972853  0.7307873  0.5000000    0.00000       Uiso       1.00
       C39          C  0.3955213  0.7601168  0.5000000    0.00000       Uiso       1.00
        O3          O  0.4519604  0.8516375  0.5000000    0.00000       Uiso       1.00
       H11          H  0.5335672  0.9742973  0.5000000    0.00000       Uiso       1.00
       H12          H  0.5035015  0.9151772  0.5000000    0.00000       Uiso       1.00
       H13          H  0.4788463  0.8136865  0.5000000    0.00000       Uiso       1.00
       H14          H  0.4804279  0.7629613  0.5000000    0.00000       Uiso       1.00
       H15          H  0.3750950  0.7083501  0.5000000    0.00000       Uiso       1.00
       C40          C  0.9627304  0.4556172  0.5000000    0.00000       Uiso       1.00
       C41          C  0.9281372  0.4383857  0.5000000    0.00000       Uiso       1.00
       C42          C  0.8199606  0.3952495  0.5000000    0.00000       Uiso       1.00
       C43          C  0.7904717  0.3648022  0.5000000    0.00000       Uiso       1.00
       C44          C  0.7905613  0.3348467  0.5000000    0.00000       Uiso       1.00
       C45          C  0.7609501  0.3044672  0.5000000    0.00000       Uiso       1.00
       C46          C  0.7300215  0.3028544  0.5000000    0.00000       Uiso       1.00
       C47          C  0.7307874  0.3335020  0.5000000    0.00000       Uiso       1.00
       C48          C  0.7601168  0.3645955  0.5000000    0.00000       Uiso       1.00
        O4          O  0.8516375  0.3996771  0.5000000    0.00000       Uiso       1.00
       H16          H  0.9742973  0.4407300  0.5000000    0.00000       Uiso       1.00
       H17          H  0.9151772  0.4116758  0.5000000    0.00000       Uiso       1.00
       H18          H  0.8136865  0.3348402  0.5000000    0.00000       Uiso       1.00
       H19          H  0.7629613  0.2825334  0.5000000    0.00000       Uiso       1.00
       H20          H  0.7083501  0.3332552  0.5000000    0.00000       Uiso       1.00
       C49          C  0.5443828  0.5071132  0.5000000    0.00000       Uiso       1.00
       C50          C  0.5616143  0.4897515  0.5000000    0.00000       Uiso       1.00
       C51          C  0.6047505  0.4247110  0.5000000    0.00000       Uiso       1.00
       C52          C  0.6351978  0.4256695  0.5000000    0.00000       Uiso       1.00
       C53          C  0.6651533  0.4557146  0.5000000    0.00000       Uiso       1.00
       C54          C  0.6955327  0.4564829  0.5000000    0.00000       Uiso       1.00
       C55          C  0.6971455  0.4271670  0.5000000    0.00000       Uiso       1.00
       C56          C  0.6664979  0.3972853  0.5000000    0.00000       Uiso       1.00
       C57          C  0.6354045  0.3955213  0.5000000    0.00000       Uiso       1.00
        O5          O  0.6003228  0.4519604  0.5000000    0.00000       Uiso       1.00
       H21          H  0.5592700  0.5335672  0.5000000    0.00000       Uiso       1.00
       H22          H  0.5883242  0.5035015  0.5000000    0.00000       Uiso       1.00
       H23          H  0.6651598  0.4788463  0.5000000    0.00000       Uiso       1.00
       H24          H  0.7174665  0.4804279  0.5000000    0.00000       Uiso       1.00
       H25          H  0.6667448  0.3750950  0.5000000    0.00000       Uiso       1.00
       C58          C  0.4928868  0.0372695  0.5000000    0.00000       Uiso       1.00
       C59          C  0.5102485  0.0718628  0.5000000    0.00000       Uiso       1.00
       C60          C  0.5752889  0.1800394  0.5000000    0.00000       Uiso       1.00
       C61          C  0.5743304  0.2095282  0.5000000    0.00000       Uiso       1.00
       C62          C  0.5442854  0.2094387  0.5000000    0.00000       Uiso       1.00
       C63          C  0.5435171  0.2390498  0.5000000    0.00000       Uiso       1.00
       C64          C  0.5728329  0.2699785  0.5000000    0.00000       Uiso       1.00
       C65          C  0.6027147  0.2692126  0.5000000    0.00000       Uiso       1.00
       C66          C  0.6044787  0.2398831  0.5000000    0.00000       Uiso       1.00
        O6          O  0.5480396  0.1483625  0.5000000    0.00000       Uiso       1.00
       H26          H  0.4664327  0.0257027  0.5000000    0.00000       Uiso       1.00
       H27          H  0.4964984  0.0848227  0.5000000    0.00000       Uiso       1.00
       H28          H  0.5211537  0.1863135  0.5000000    0.00000       Uiso       1.00
       H29          H  0.5195720  0.2370386  0.5000000    0.00000       Uiso       1.00
       H30          H  0.6249050  0.2916498  0.5000000    0.00000       Uiso       1.00
       C67          C  0.5443827  0.0372695  0.5000000    0.00000       Uiso       1.00
       C68          C  0.5616143  0.0718628  0.5000000    0.00000       Uiso       1.00
       C69          C  0.6047505  0.1800394  0.5000000    0.00000       Uiso       1.00
       C70          C  0.6351977  0.2095282  0.5000000    0.00000       Uiso       1.00
       C71          C  0.6651533  0.2094387  0.5000000    0.00000       Uiso       1.00
       C72          C  0.6955327  0.2390498  0.5000000    0.00000       Uiso       1.00
       C73          C  0.6971455  0.2699785  0.5000000    0.00000       Uiso       1.00
       C74          C  0.6664979  0.2692126  0.5000000    0.00000       Uiso       1.00
       C75          C  0.6354045  0.2398831  0.5000000    0.00000       Uiso       1.00
        O7          O  0.6003228  0.1483625  0.5000000    0.00000       Uiso       1.00
       H31          H  0.5592699  0.0257027  0.5000000    0.00000       Uiso       1.00
       H32          H  0.5883242  0.0848227  0.5000000    0.00000       Uiso       1.00
       H33          H  0.6651598  0.1863135  0.5000000    0.00000       Uiso       1.00
       H34          H  0.7174665  0.2370386  0.5000000    0.00000       Uiso       1.00
       H35          H  0.6667448  0.2916498  0.5000000    0.00000       Uiso       1.00
       C76          C  0.4928868  0.4556172  0.5000000    0.00000       Uiso       1.00
       C77          C  0.5102485  0.4383857  0.5000000    0.00000       Uiso       1.00
       C78          C  0.5752889  0.3952495  0.5000000    0.00000       Uiso       1.00
       C79          C  0.5743304  0.3648022  0.5000000    0.00000       Uiso       1.00
       C80          C  0.5442854  0.3348467  0.5000000    0.00000       Uiso       1.00
       C81          C  0.5435171  0.3044672  0.5000000    0.00000       Uiso       1.00
       C82          C  0.5728329  0.3028544  0.5000000    0.00000       Uiso       1.00
       C83          C  0.6027147  0.3335020  0.5000000    0.00000       Uiso       1.00
       C84          C  0.6044786  0.3645955  0.5000000    0.00000       Uiso       1.00
        O8          O  0.5480396  0.3996771  0.5000000    0.00000       Uiso       1.00
       H36          H  0.4664327  0.4407300  0.5000000    0.00000       Uiso       1.00
       H37          H  0.4964984  0.4116758  0.5000000    0.00000       Uiso       1.00
       H38          H  0.5211537  0.3348402  0.5000000    0.00000       Uiso       1.00
       H39          H  0.5195720  0.2825334  0.5000000    0.00000       Uiso       1.00
       H40          H  0.6249050  0.3332552  0.5000000    0.00000       Uiso       1.00
       C85          C  0.9627305  0.5071132  0.5000000    0.00000       Uiso       1.00
       C86          C  0.9281371  0.4897515  0.5000000    0.00000       Uiso       1.00
       C87          C  0.8199606  0.4247110  0.5000000    0.00000       Uiso       1.00
       C88          C  0.7904717  0.4256695  0.5000000    0.00000       Uiso       1.00
       C89          C  0.7905613  0.4557146  0.5000000    0.00000       Uiso       1.00
       C90          C  0.7609501  0.4564829  0.5000000    0.00000       Uiso       1.00
       C91          C  0.7300214  0.4271670  0.5000000    0.00000       Uiso       1.00
       C92          C  0.7307874  0.3972853  0.5000000    0.00000       Uiso       1.00
       C93          C  0.7601168  0.3955213  0.5000000    0.00000       Uiso       1.00
        O9          O  0.8516375  0.4519604  0.5000000    0.00000       Uiso       1.00
       H41          H  0.9742973  0.5335672  0.5000000    0.00000       Uiso       1.00
       H42          H  0.9151773  0.5035015  0.5000000    0.00000       Uiso       1.00
       H43          H  0.8136865  0.4788463  0.5000000    0.00000       Uiso       1.00
       H44          H  0.7629613  0.4804279  0.5000000    0.00000       Uiso       1.00
       H45          H  0.7083501  0.3750950  0.5000000    0.00000       Uiso       1.00
       C94          C  0.4556172  0.9627304  0.5000000    0.00000       Uiso       1.00
       C95          C  0.4383857  0.9281371  0.5000000    0.00000       Uiso       1.00
       C96          C  0.3952495  0.8199606  0.5000000    0.00000       Uiso       1.00
       C97          C  0.3648022  0.7904717  0.5000000    0.00000       Uiso       1.00
       C98          C  0.3348467  0.7905613  0.5000000    0.00000       Uiso       1.00
       C99          C  0.3044672  0.7609501  0.5000000    0.00000       Uiso       1.00
      C100          C  0.3028544  0.7300215  0.5000000    0.00000       Uiso       1.00
      C101          C  0.3335020  0.7307873  0.5000000    0.00000       Uiso       1.00
      C102          C  0.3645955  0.7601168  0.5000000    0.00000       Uiso       1.00
       O10          O  0.3996771  0.8516375  0.5000000    0.00000       Uiso       1.00
       H46          H  0.4407300  0.9742973  0.5000000    0.00000       Uiso       1.00
       H47          H  0.4116757  0.9151772  0.5000000    0.00000       Uiso       1.00
       H48          H  0.3348402  0.8136865  0.5000000    0.00000       Uiso       1.00
       H49          H  0.2825334  0.7629613  0.5000000    0.00000       Uiso       1.00
       H50          H  0.3332552  0.7083501  0.5000000    0.00000       Uiso       1.00
      C103          C  0.5071132  0.5443828  0.5000000    0.00000       Uiso       1.00
      C104          C  0.4897515  0.5616143  0.5000000    0.00000       Uiso       1.00
      C105          C  0.4247110  0.6047505  0.5000000    0.00000       Uiso       1.00
      C106          C  0.4256695  0.6351977  0.5000000    0.00000       Uiso       1.00
      C107          C  0.4557146  0.6651532  0.5000000    0.00000       Uiso       1.00
      C108          C  0.4564829  0.6955327  0.5000000    0.00000       Uiso       1.00
      C109          C  0.4271670  0.6971455  0.5000000    0.00000       Uiso       1.00
      C110          C  0.3972853  0.6664979  0.5000000    0.00000       Uiso       1.00
      C111          C  0.3955213  0.6354045  0.5000000    0.00000       Uiso       1.00
       O11          O  0.4519604  0.6003229  0.5000000    0.00000       Uiso       1.00
       H51          H  0.5335672  0.5592700  0.5000000    0.00000       Uiso       1.00
       H52          H  0.5035015  0.5883242  0.5000000    0.00000       Uiso       1.00
       H53          H  0.4788463  0.6651598  0.5000000    0.00000       Uiso       1.00
       H54          H  0.4804279  0.7174665  0.5000000    0.00000       Uiso       1.00
       H55          H  0.3750950  0.6667448  0.5000000    0.00000       Uiso       1.00
      C112          C  0.0372695  0.4928868  0.5000000    0.00000       Uiso       1.00
      C113          C  0.0718628  0.5102485  0.5000000    0.00000       Uiso       1.00
      C114          C  0.1800394  0.5752889  0.5000000    0.00000       Uiso       1.00
      C115          C  0.2095282  0.5743304  0.5000000    0.00000       Uiso       1.00
      C116          C  0.2094387  0.5442854  0.5000000    0.00000       Uiso       1.00
      C117          C  0.2390498  0.5435171  0.5000000    0.00000       Uiso       1.00
      C118          C  0.2699785  0.5728329  0.5000000    0.00000       Uiso       1.00
      C119          C  0.2692126  0.6027147  0.5000000    0.00000       Uiso       1.00
      C120          C  0.2398831  0.6044787  0.5000000    0.00000       Uiso       1.00
       O12          O  0.1483625  0.5480396  0.5000000    0.00000       Uiso       1.00
       H56          H  0.0257027  0.4664327  0.5000000    0.00000       Uiso       1.00
       H57          H  0.0848227  0.4964984  0.5000000    0.00000       Uiso       1.00
       H58          H  0.1863135  0.5211537  0.5000000    0.00000       Uiso       1.00
       H59          H  0.2370386  0.5195720  0.5000000    0.00000       Uiso       1.00
       H60          H  0.2916498  0.6249050  0.5000000    0.00000       Uiso       1.00
