data_crystal
 
_cell_length_a    37.78980
_cell_length_b    37.78980
_cell_length_c    7.50300
_cell_angle_alpha 90.00000
_cell_angle_beta  90.00000
_cell_angle_gamma 120.00000
 
_space_group_name_Hall 'P 1'
_space_group_name_H-M_alt  'P 1'
 
loop_
_symmetry_equiv_pos_as_xyz
 'x,y,z' 
 
loop_
_atom_site_label
_atom_site_type_symbol
_atom_site_fract_x
_atom_site_fract_y
_atom_site_fract_z
H          H       0.12618   0.42344   0.49470 
H          H       0.24325   0.53241   0.04577 
H          H       0.13507   0.54247   0.03275 
H          H       0.26688   0.58792   0.21432 
H          H       0.31057   0.66325   0.22893 
H          H       0.21944   0.67872   0.45559 
H          H       0.17695   0.60407   0.42206 
H          H       0.15837   0.39700   0.15730 
H          H       0.19128   0.35460   0.14522 
H          H       0.29356   0.45213   0.36760 
H          H       0.26057   0.49396   0.36934 
H          H       0.25108   0.73572   0.16179 
H          H       0.36426   0.78343   0.11301 
H          H       0.31758   0.88592   0.10207 
H          H       0.43067   0.93336   0.04232 
H          H       0.32390   0.42030   0.49970 
H          H       0.29426   0.25830   0.07275 
H          H       0.37439   0.40512   0.38756 
H          H       0.34478   0.24349   0.44401 
H          H       0.37527   0.21067   0.33604 
H          H       0.40983   0.17029   0.33560 
H          H       0.51347   0.27047   0.10132 
H          H       0.47843   0.31109   0.09817 
H          H       0.43126   0.13517   0.03453 
H          H       0.54040   0.12794   0.46877 
H          H       0.54418   0.24417   0.40479 
H          H       0.40401   0.07348   0.38604 
H          H       0.36330   0.99817   0.42495 
H          H       0.46463   0.99806   0.18247 
H          H       0.50515   0.07340   0.15545 
H          H       0.59536   0.16081   0.28229 
H          H       0.67032   0.19634   0.26702 
H          H       0.67747   0.30209   0.03182 
H          H       0.60380   0.26629   0.06051 
H          H       0.74033   0.31709   0.07398 
H          H       0.78695   0.26511   0.32567 
H          H       0.88625   0.40820   0.01367 
H          H       0.93436   0.35611   0.27888 
H          H       0.24844   0.31825   0.22586 
H          H       0.42092   0.34444   0.24411 
H          H       0.47509   0.41388   0.29368 
H          H       0.44240   0.42406   0.44688 
H          H       0.22599   0.24029   0.00787 
H          H       0.19368   0.24950   0.16759 
H          H       0.82967   0.41301   0.16783 
H          H       0.76324   0.37895   0.38094 
H          H       0.77493   0.42025   0.04782 
H          H       0.84376   0.26070   0.16921 
H          H       0.89783   0.25253   0.29093 
H          H       0.90935   0.29336   0.45989 
H          H       0.24765   0.83017   0.19798 
H          H       0.23248   0.76317   0.42508 
H          H       0.19518   0.77618   0.02338 
H          H       0.43421   0.83917   0.01620 
H          H       0.48692   0.89392   0.18728 
H          H       0.44962   0.90708   0.28461 
H          H       0.07352   0.50662   0.14597 
H          H       0.99931   0.47282   0.11883 
H          H       0.99782   0.37273   0.32858 
H          H       0.07157   0.40762   0.33659 
C          C       0.12496   0.48055   0.00931 
C          C       0.14428   0.45664   0.00679 
C          C       0.18691   0.47506   0.01955 
C          C       0.21047   0.51823   0.03725 
C          C       0.19223   0.54310   0.04435 
C          C       0.14942   0.52376   0.02911 
C          C       0.20685   0.44920   0.01504 
C          C       0.21793   0.58911   0.06595 
C          C       0.25623   0.60695   0.15226 
C          C       0.28112   0.64996   0.16395 
C          C       0.26776   0.67607   0.09753 
C          C       0.22943   0.65883   0.01480 
C          C       0.20501   0.61589   0.49706 
C          C       0.18747   0.40922   0.09005 
C          C       0.20625   0.38509   0.08547 
C          C       0.24504   0.40058   0.01098 
C          C       0.26451   0.44026   0.43439 
C          C       0.24551   0.46422   0.43568 
C          C       0.28271   0.74668   0.12951 
C          C       0.31186   0.79182   0.11580 
C          C       0.35396   0.80581   0.10927 
C          C       0.38321   0.84805   0.10239 
C          C       0.37006   0.87761   0.09662 
C          C       0.32797   0.86361   0.10594 
C          C       0.29873   0.82141   0.11224 
C          C       0.39894   0.92257   0.07102 
C          C       0.30194   0.38749   0.00490 
C          C       0.31761   0.35811   0.49879 
C          C       0.29432   0.31588   0.04950 
C          C       0.31138   0.29020   0.02886 
C          C       0.35102   0.30544   0.46238 
C          C       0.37442   0.34766   0.41285 
C          C       0.35728   0.37328   0.43221 
C          C       0.36674   0.27621   0.45342 
C          C       0.42413   0.26370   0.47197 
C          C       0.40491   0.22367   0.39832 
C          C       0.42480   0.20056   0.39754 
C          C       0.46426   0.21702   0.46963 
C          C       0.48348   0.25725   0.04130 
C          C       0.46357   0.28033   0.04113 
C          C       0.48533   0.19239   0.46923 
C          C       0.46337   0.14966   0.00184 
C          C       0.48259   0.12572   0.49667 
C          C       0.52508   0.14581   0.46886 
C          C       0.54797   0.18887   0.44182 
C          C       0.52744   0.21153   0.43669 
C          C       0.45805   0.07984   0.01800 
C          C       0.59332   0.21049   0.42386 
C          C       0.41754   0.05777   0.45483 
C          C       0.39433   0.01482   0.47439 
C          C       0.41125   0.99281   0.05167 
C          C       0.45161   0.01437   0.11493 
C          C       0.47473   0.05752   0.09915 
C          C       0.61292   0.19112   0.34214 
C          C       0.65561   0.21135   0.33185 
C          C       0.67958   0.25110   0.40214 
C          C       0.66016   0.27102   0.47994 
C          C       0.61760   0.25074   0.49245 
C          C       0.74992   0.30316   0.47282 
C          C       0.79424   0.32141   0.43933 
C          C       0.80867   0.29657   0.36498 
C          C       0.85058   0.31084   0.34796 
C          C       0.87910   0.35180   0.40141 
C          C       0.86458   0.37675   0.47393 
C          C       0.82272   0.36250   0.49090 
C          C       0.92368   0.36974   0.37672 
C          C       0.25359   0.29869   0.13478 
C          C       0.41533   0.36462   0.32930 
C          C       0.44579   0.40319   0.35745 
C          C       0.22286   0.26050   0.10225 
C          C       0.81098   0.39212   0.06273 
C          C       0.78118   0.39708   0.49358 
C          C       0.86228   0.28122   0.27565 
C          C       0.89168   0.27573   0.34573 
C          C       0.25533   0.81086   0.11742 
C          C       0.22605   0.78145   0.01750 
C          C       0.42661   0.85868   0.09576 
C          C       0.45601   0.88853   0.19360 
C          C       0.07941   0.46030   0.49282 
C          C       0.05794   0.47841   0.06898 
C          C       0.01539   0.45898   0.05609 
C          C       0.99306   0.42092   0.46997 
C          C       0.01398   0.40231   0.39485 
C          C       0.05663   0.42209   0.40375 
N          N       0.29474   0.71997   0.10379 
N          N       0.26308   0.37468   0.01138 
N          N       0.38594   0.94891   0.07226 
N          N       0.40538   0.28899   0.47408 
N          N       0.72324   0.27063   0.38562 
N          N       0.94930   0.40144   0.47118 
H          H       0.12618   0.42344   0.99470 
H          H       0.24325   0.53241   0.54577 
H          H       0.13507   0.54247   0.53275 
H          H       0.26688   0.58792   0.71432 
H          H       0.31057   0.66325   0.72893 
H          H       0.21944   0.67872   0.95560 
H          H       0.17695   0.60407   0.92206 
H          H       0.15837   0.39700   0.65730 
H          H       0.19128   0.35460   0.64522 
H          H       0.29356   0.45213   0.86761 
H          H       0.26057   0.49396   0.86934 
H          H       0.25108   0.73572   0.66179 
H          H       0.36426   0.78343   0.61301 
H          H       0.31758   0.88592   0.60207 
H          H       0.43067   0.93336   0.54232 
H          H       0.32390   0.42030   0.99970 
H          H       0.29426   0.25830   0.57275 
H          H       0.37439   0.40512   0.88756 
H          H       0.34478   0.24349   0.94402 
H          H       0.37527   0.21067   0.83604 
H          H       0.40983   0.17029   0.83561 
H          H       0.51347   0.27047   0.60132 
H          H       0.47843   0.31109   0.59816 
H          H       0.43126   0.13517   0.53453 
H          H       0.54040   0.12794   0.96877 
H          H       0.54418   0.24417   0.90478 
H          H       0.40401   0.07348   0.88604 
H          H       0.36330   0.99817   0.92495 
H          H       0.46463   0.99806   0.68248 
H          H       0.50515   0.07340   0.65546 
H          H       0.59536   0.16081   0.78229 
H          H       0.67032   0.19634   0.76702 
H          H       0.67747   0.30209   0.53182 
H          H       0.60380   0.26629   0.56051 
H          H       0.74033   0.31709   0.57398 
H          H       0.78695   0.26511   0.82568 
H          H       0.88625   0.40820   0.51367 
H          H       0.93436   0.35611   0.77888 
H          H       0.24844   0.31825   0.72586 
H          H       0.42092   0.34444   0.74411 
H          H       0.47509   0.41388   0.79368 
H          H       0.44240   0.42406   0.94688 
H          H       0.22599   0.24029   0.50787 
H          H       0.19368   0.24950   0.66759 
H          H       0.82967   0.41301   0.66783 
H          H       0.76324   0.37895   0.88094 
H          H       0.77493   0.42025   0.54782 
H          H       0.84376   0.26070   0.66921 
H          H       0.89783   0.25253   0.79094 
H          H       0.90935   0.29336   0.95989 
H          H       0.24765   0.83017   0.69798 
H          H       0.23248   0.76317   0.92508 
H          H       0.19518   0.77618   0.52338 
H          H       0.43421   0.83917   0.51619 
H          H       0.48692   0.89392   0.68728 
H          H       0.44962   0.90708   0.78461 
H          H       0.07352   0.50662   0.64597 
H          H       0.99931   0.47282   0.61884 
H          H       0.99782   0.37273   0.82857 
H          H       0.07157   0.40762   0.83659 
C          C       0.12496   0.48055   0.50931 
C          C       0.14428   0.45664   0.50679 
C          C       0.18691   0.47506   0.51955 
C          C       0.21047   0.51823   0.53725 
C          C       0.19223   0.54310   0.54435 
C          C       0.14942   0.52376   0.52912 
C          C       0.20685   0.44920   0.51504 
C          C       0.21793   0.58911   0.56595 
C          C       0.25623   0.60695   0.65226 
C          C       0.28112   0.64996   0.66395 
C          C       0.26776   0.67607   0.59754 
C          C       0.22943   0.65883   0.51480 
C          C       0.20501   0.61589   0.99706 
C          C       0.18747   0.40922   0.59005 
C          C       0.20625   0.38509   0.58547 
C          C       0.24504   0.40058   0.51098 
C          C       0.26451   0.44026   0.93439 
C          C       0.24551   0.46422   0.93568 
C          C       0.28271   0.74668   0.62950 
C          C       0.31186   0.79182   0.61580 
C          C       0.35396   0.80581   0.60928 
C          C       0.38321   0.84805   0.60240 
C          C       0.37006   0.87761   0.59662 
C          C       0.32797   0.86361   0.60594 
C          C       0.29873   0.82141   0.61224 
C          C       0.39894   0.92257   0.57102 
C          C       0.30194   0.38749   0.50489 
C          C       0.31761   0.35811   0.99879 
C          C       0.29432   0.31588   0.54950 
C          C       0.31138   0.29020   0.52886 
C          C       0.35102   0.30544   0.96238 
C          C       0.37442   0.34766   0.91285 
C          C       0.35728   0.37328   0.93220 
C          C       0.36674   0.27621   0.95342 
C          C       0.42413   0.26370   0.97198 
C          C       0.40491   0.22367   0.89832 
C          C       0.42480   0.20056   0.89754 
C          C       0.46426   0.21702   0.96963 
C          C       0.48348   0.25725   0.54130 
C          C       0.46357   0.28033   0.54113 
C          C       0.48533   0.19239   0.96923 
C          C       0.46337   0.14966   0.50184 
C          C       0.48259   0.12572   0.99667 
C          C       0.52508   0.14581   0.96886 
C          C       0.54797   0.18887   0.94182 
C          C       0.52744   0.21153   0.93670 
C          C       0.45805   0.07984   0.51800 
C          C       0.59332   0.21049   0.92387 
C          C       0.41754   0.05777   0.95483 
C          C       0.39433   0.01482   0.97438 
C          C       0.41125   0.99281   0.55167 
C          C       0.45161   0.01437   0.61493 
C          C       0.47473   0.05752   0.59915 
C          C       0.61292   0.19112   0.84214 
C          C       0.65561   0.21135   0.83185 
C          C       0.67958   0.25110   0.90214 
C          C       0.66016   0.27102   0.97994 
C          C       0.61760   0.25074   0.99245 
C          C       0.74992   0.30316   0.97282 
C          C       0.79424   0.32141   0.93933 
C          C       0.80867   0.29657   0.86498 
C          C       0.85058   0.31084   0.84796 
C          C       0.87910   0.35180   0.90141 
C          C       0.86458   0.37675   0.97393 
C          C       0.82272   0.36250   0.99090 
C          C       0.92368   0.36974   0.87672 
C          C       0.25359   0.29869   0.63478 
C          C       0.41533   0.36462   0.82930 
C          C       0.44579   0.40319   0.85745 
C          C       0.22286   0.26050   0.60225 
C          C       0.81098   0.39212   0.56273 
C          C       0.78118   0.39708   0.99358 
C          C       0.86228   0.28122   0.77565 
C          C       0.89168   0.27573   0.84573 
C          C       0.25533   0.81086   0.61742 
C          C       0.22605   0.78145   0.51750 
C          C       0.42661   0.85868   0.59576 
C          C       0.45601   0.88853   0.69361 
C          C       0.07941   0.46030   0.99282 
C          C       0.05794   0.47841   0.56898 
C          C       0.01539   0.45898   0.55609 
C          C       0.99306   0.42092   0.96997 
C          C       0.01398   0.40231   0.89485 
C          C       0.05663   0.42209   0.90375 
N          N       0.29474   0.71997   0.60379 
N          N       0.26308   0.37468   0.51138 
N          N       0.38594   0.94891   0.57227 
N          N       0.40538   0.28899   0.97408 
N          N       0.72324   0.27063   0.88562 
N          N       0.94930   0.40144   0.97118 
