data_crystal
 
_cell_length_a    56.26820
_cell_length_b    56.26820
_cell_length_c    8.33720
_cell_angle_alpha 90.00000
_cell_angle_beta  90.00000
_cell_angle_gamma 120.00000
 
_symmetry_space_group_name_Hall 'P 1'
_symmetry_space_group_name_H-M  'P 1'
 
loop_
_symmetry_equiv_pos_as_xyz
 'x,y,z' 
 
loop_
_atom_site_label
_atom_site_type_symbol
_atom_site_fract_x
_atom_site_fract_y
_atom_site_fract_z
C          C       0.63654   0.27389   0.42341 
C          C       0.72611   0.36265   0.42341 
C          C       0.63735   0.36346   0.42341 
C          C       0.36346   0.72611   0.42341 
C          C       0.27389   0.63735   0.42341 
C          C       0.36265   0.63654   0.42341 
C          C       0.61218   0.25932   0.33454 
C          C       0.74068   0.35286   0.33454 
C          C       0.64714   0.38782   0.33454 
C          C       0.38782   0.74068   0.33454 
C          C       0.25932   0.64714   0.33454 
C          C       0.35286   0.61218   0.33454 
C          C       0.59765   0.23062   0.33535 
C          C       0.76938   0.36703   0.33535 
C          C       0.63297   0.40235   0.33535 
C          C       0.40235   0.76938   0.33535 
C          C       0.23062   0.63297   0.33535 
C          C       0.36703   0.59765   0.33535 
C          C       0.60710   0.21586   0.42349 
C          C       0.78414   0.39124   0.42349 
C          C       0.60876   0.39290   0.42349 
C          C       0.39290   0.78414   0.42349 
C          C       0.21586   0.60876   0.42349 
C          C       0.39124   0.60710   0.42349 
C          C       0.63162   0.23033   0.01140 
C          C       0.76967   0.40129   0.01140 
C          C       0.59871   0.36838   0.01140 
C          C       0.36838   0.76967   0.01140 
C          C       0.23033   0.59871   0.01140 
C          C       0.40129   0.63162   0.01140 
C          C       0.64607   0.25905   0.01201 
C          C       0.74095   0.38702   0.01201 
C          C       0.61298   0.35393   0.01201 
C          C       0.35393   0.74095   0.01201 
C          C       0.25905   0.61298   0.01201 
C          C       0.38702   0.64607   0.01201 
N          N       0.59133   0.18641   0.41739 
N          N       0.81359   0.40492   0.41739 
N          N       0.59508   0.40867   0.41739 
N          N       0.40867   0.81359   0.41739 
N          N       0.18641   0.59508   0.41739 
N          N       0.40492   0.59133   0.41739 
C          C       0.65197   0.30442   0.42342 
C          C       0.69558   0.34755   0.42342 
C          C       0.65245   0.34803   0.42342 
C          C       0.34803   0.69558   0.42342 
C          C       0.30442   0.65245   0.42342 
C          C       0.34755   0.65197   0.42342 
C          C       0.68079   0.31891   0.42341 
C          C       0.68109   0.36188   0.42341 
C          C       0.63812   0.31921   0.42341 
C          C       0.31921   0.68109   0.42341 
C          C       0.31891   0.63812   0.42341 
C          C       0.36188   0.68079   0.42341 
C          C       0.59538   0.16912   0.49962 
C          C       0.83088   0.42626   0.49962 
C          C       0.57374   0.40462   0.49962 
C          C       0.40462   0.83088   0.49962 
C          C       0.16912   0.57374   0.49962 
C          C       0.42626   0.59538   0.49962 
C          C       0.44945   0.00737   0.41698 
C          C       0.99263   0.44208   0.41698 
C          C       0.55792   0.55055   0.41698 
C          C       0.55055   0.99263   0.41698 
C          C       0.00737   0.55792   0.41698 
C          C       0.44208   0.44945   0.41698 
C          C       0.47754   0.01553   0.42131 
C          C       0.98447   0.46201   0.42131 
C          C       0.53799   0.52246   0.42131 
C          C       0.52246   0.98447   0.42131 
C          C       0.01553   0.53799   0.42131 
C          C       0.46201   0.47754   0.42131 
C          C       0.48569   0.99586   0.42458 
C          C       0.00414   0.48983   0.42458 
C          C       0.51017   0.51431   0.42458 
C          C       0.51431   0.00414   0.42458 
C          C       0.99586   0.51017   0.42458 
C          C       0.48983   0.48569   0.42458 
C          C       0.46544   0.96752   0.41924 
C          C       0.03248   0.49792   0.41924 
C          C       0.50208   0.53456   0.41924 
C          C       0.53456   0.03248   0.41924 
C          C       0.96752   0.50208   0.41924 
C          C       0.49792   0.46544   0.41924 
C          C       0.43766   0.96081   0.39704 
C          C       0.03919   0.47685   0.39704 
C          C       0.52315   0.56234   0.39704 
C          C       0.56234   0.03919   0.39704 
C          C       0.96081   0.52315   0.39704 
C          C       0.47685   0.43766   0.39704 
C          C       0.49745   0.04346   0.42274 
C          C       0.95654   0.45399   0.42274 
C          C       0.54601   0.50255   0.42274 
C          C       0.50255   0.95654   0.42274 
C          C       0.04346   0.54601   0.42274 
C          C       0.45399   0.49745   0.42274 
C          C       0.52574   0.05277   0.42351 
C          C       0.94723   0.47297   0.42351 
C          C       0.52703   0.47426   0.42351 
C          C       0.47426   0.94723   0.42351 
C          C       0.05277   0.52703   0.42351 
C          C       0.47297   0.52574   0.42351 
O          O       0.42046   0.93783   0.35508 
O          O       0.06217   0.48263   0.35508 
O          O       0.51737   0.57954   0.35508 
O          O       0.57954   0.06217   0.35508 
O          O       0.93783   0.51737   0.35508 
O          O       0.48263   0.42046   0.35508 
O          O       0.44289   0.02493   0.41042 
O          O       0.97507   0.41796   0.41042 
O          O       0.58204   0.55711   0.41042 
O          O       0.55711   0.97507   0.41042 
O          O       0.02493   0.58204   0.41042 
O          O       0.41796   0.44289   0.41042 
C          C       0.54364   0.08167   0.43782 
C          C       0.91833   0.46197   0.43782 
C          C       0.53803   0.45636   0.43782 
C          C       0.45636   0.91833   0.43782 
C          C       0.08167   0.53803   0.43782 
C          C       0.46197   0.54364   0.43782 
N          N       0.57019   0.02002   0.41408 
N          N       0.97998   0.55017   0.41408 
N          N       0.44983   0.42981   0.41408 
N          N       0.42981   0.97998   0.41408 
N          N       0.02002   0.44983   0.41408 
N          N       0.55017   0.57019   0.41408 
C          C       0.60030   0.03035   0.41397 
C          C       0.96965   0.56995   0.41397 
C          C       0.43005   0.39970   0.41397 
C          C       0.39970   0.96965   0.41397 
C          C       0.03035   0.43005   0.41397 
C          C       0.56995   0.60030   0.41397 
C          C       0.60962   0.01078   0.48085 
C          C       0.98922   0.59884   0.48085 
C          C       0.40116   0.39038   0.48085 
C          C       0.39038   0.98922   0.48085 
C          C       0.01078   0.40116   0.48085 
C          C       0.59884   0.60962   0.48085 
C          C       0.64061   0.02604   0.01399 
C          C       0.97396   0.61457   0.01399 
C          C       0.38543   0.35939   0.01399 
C          C       0.35939   0.97396   0.01399 
C          C       0.02604   0.38543   0.01399 
C          C       0.61457   0.64061   0.01399 
C          C       0.64994   0.00620   0.07274 
C          C       0.99380   0.64374   0.07274 
C          C       0.35626   0.35006   0.07274 
C          C       0.35006   0.99380   0.07274 
C          C       0.00620   0.35626   0.07274 
C          C       0.64374   0.64994   0.07274 
C          C       0.68087   0.02140   0.10600 
C          C       0.97860   0.65947   0.10600 
C          C       0.34053   0.31913   0.10600 
C          C       0.31913   0.97860   0.10600 
C          C       0.02140   0.34053   0.10600 
C          C       0.65947   0.68087   0.10600 
C          C       0.69021   0.00151   0.16367 
C          C       0.99849   0.68870   0.16367 
C          C       0.31130   0.30979   0.16367 
C          C       0.30979   0.99849   0.16367 
C          C       0.00151   0.31130   0.16367 
C          C       0.68870   0.69021   0.16367 
C          C       0.56631   0.09275   0.04239 
C          C       0.90725   0.47356   0.04239 
C          C       0.52644   0.43369   0.04239 
C          C       0.43369   0.90725   0.04239 
C          C       0.09275   0.52644   0.04239 
C          C       0.47356   0.56631   0.04239 
C          C       0.58320   0.12110   0.06019 
C          C       0.87890   0.46210   0.06019 
C          C       0.53790   0.41680   0.06019 
C          C       0.41680   0.87890   0.06019 
C          C       0.12110   0.53790   0.06019 
C          C       0.46210   0.58320   0.06019 
C          C       0.57740   0.13927   0.47779 
C          C       0.86073   0.43813   0.47779 
C          C       0.56187   0.42260   0.47779 
C          C       0.42260   0.86073   0.47779 
C          C       0.13927   0.56187   0.47779 
C          C       0.43813   0.57740   0.47779 
C          C       0.55444   0.12860   0.37668 
C          C       0.87140   0.42584   0.37668 
C          C       0.57416   0.44556   0.37668 
C          C       0.44556   0.87140   0.37668 
C          C       0.12860   0.57416   0.37668 
C          C       0.42584   0.55444   0.37668 
C          C       0.53780   0.10026   0.35697 
C          C       0.89974   0.43754   0.35697 
C          C       0.56246   0.46220   0.35697 
C          C       0.46220   0.89974   0.35697 
C          C       0.10026   0.56246   0.35697 
C          C       0.43754   0.53780   0.35697 
C          C       0.72112   0.01671   0.19737 
C          C       0.98329   0.70441   0.19737 
C          C       0.29559   0.27888   0.19737 
C          C       0.27888   0.98329   0.19737 
C          C       0.01671   0.29559   0.19737 
C          C       0.70441   0.72112   0.19737 
C          C       0.26938   0.00324   0.25508 
C          C       0.99676   0.26614   0.25508 
C          C       0.73386   0.73062   0.25508 
C          C       0.73062   0.99676   0.25508 
C          C       0.00324   0.73386   0.25508 
C          C       0.26614   0.26938   0.25508 
H          H       0.60478   0.27008   0.26060 
H          H       0.72992   0.33470   0.26060 
H          H       0.66530   0.39522   0.26060 
H          H       0.39522   0.72992   0.26060 
H          H       0.27008   0.66530   0.26060 
H          H       0.33470   0.60478   0.26060 
H          H       0.57910   0.21963   0.26482 
H          H       0.78037   0.35947   0.26482 
H          H       0.64053   0.42090   0.26482 
H          H       0.42090   0.78037   0.26482 
H          H       0.21963   0.64053   0.26482 
H          H       0.35947   0.57910   0.26482 
H          H       0.63965   0.21977   0.08112 
H          H       0.78023   0.41988   0.08112 
H          H       0.58012   0.36035   0.08112 
H          H       0.36035   0.78023   0.08112 
H          H       0.21977   0.58012   0.08112 
H          H       0.41988   0.63965   0.08112 
H          H       0.66433   0.26966   0.08539 
H          H       0.73034   0.39467   0.08539 
H          H       0.60533   0.33567   0.08539 
H          H       0.33567   0.73034   0.08539 
H          H       0.26966   0.60533   0.08539 
H          H       0.39467   0.66433   0.08539 
H          H       0.69177   0.30771   0.42336 
H          H       0.69229   0.38406   0.42336 
H          H       0.61594   0.30823   0.42336 
H          H       0.30823   0.69229   0.42336 
H          H       0.30771   0.61594   0.42336 
H          H       0.38406   0.69177   0.42336 
H          H       0.61181   0.17605   0.08615 
H          H       0.82395   0.43576   0.08615 
H          H       0.56424   0.38819   0.08615 
H          H       0.38819   0.82395   0.08615 
H          H       0.17605   0.56424   0.08615 
H          H       0.43576   0.61181   0.08615 
H          H       0.49057   0.05833   0.43115 
H          H       0.94167   0.43224   0.43115 
H          H       0.56776   0.50943   0.43115 
H          H       0.50943   0.94167   0.43115 
H          H       0.05833   0.56776   0.43115 
H          H       0.43224   0.49057   0.43115 
H          H       0.61048   0.04927   0.48901 
H          H       0.95073   0.56121   0.48901 
H          H       0.43879   0.38952   0.48901 
H          H       0.38952   0.95073   0.48901 
H          H       0.04927   0.43879   0.48901 
H          H       0.56121   0.61048   0.48901 
H          H       0.60837   0.03663   0.29042 
H          H       0.96337   0.57174   0.29042 
H          H       0.42826   0.39163   0.29042 
H          H       0.39163   0.96337   0.29042 
H          H       0.03663   0.42826   0.29042 
H          H       0.57174   0.60837   0.29042 
H          H       0.60521   0.99447   0.39120 
H          H       0.00553   0.61074   0.39120 
H          H       0.38926   0.39479   0.39120 
H          H       0.39479   0.00553   0.39120 
H          H       0.99447   0.38926   0.39120 
H          H       0.61074   0.60521   0.39120 
H          H       0.59841   0.00116   0.09372 
H          H       0.99884   0.59725   0.09372 
H          H       0.40275   0.40159   0.09372 
H          H       0.40159   0.99884   0.09372 
H          H       0.00116   0.40275   0.09372 
H          H       0.59725   0.59841   0.09372 
H          H       0.64568   0.04214   0.10632 
H          H       0.95786   0.60354   0.10632 
H          H       0.39646   0.35432   0.10632 
H          H       0.35432   0.95786   0.10632 
H          H       0.04214   0.39646   0.10632 
H          H       0.60354   0.64568   0.10632 
H          H       0.65186   0.03625   0.40220 
H          H       0.96375   0.61561   0.40220 
H          H       0.38439   0.34814   0.40220 
H          H       0.34814   0.96375   0.40220 
H          H       0.03625   0.38439   0.40220 
H          H       0.61561   0.65186   0.40220 
H          H       0.64500   0.99014   0.48027 
H          H       0.00986   0.65486   0.48027 
H          H       0.34514   0.35500   0.48027 
H          H       0.35500   0.00986   0.48027 
H          H       0.99014   0.34514   0.48027 
H          H       0.65486   0.64500   0.48027 
H          H       0.63866   0.99589   0.18425 
H          H       0.00411   0.64277   0.18425 
H          H       0.35723   0.36134   0.18425 
H          H       0.36134   0.00411   0.18425 
H          H       0.99589   0.35723   0.18425 
H          H       0.64277   0.63866   0.18425 
H          H       0.68582   0.03737   0.19901 
H          H       0.96263   0.64845   0.19901 
H          H       0.35155   0.31418   0.19901 
H          H       0.31418   0.96263   0.19901 
H          H       0.03737   0.35155   0.19901 
H          H       0.64845   0.68582   0.19901 
H          H       0.69214   0.03175   0.49455 
H          H       0.96825   0.66039   0.49455 
H          H       0.33961   0.30786   0.49455 
H          H       0.30786   0.96825   0.49455 
H          H       0.03175   0.33961   0.49455 
H          H       0.66039   0.69214   0.49455 
H          H       0.68532   0.98557   0.07053 
H          H       0.01443   0.69975   0.07053 
H          H       0.30025   0.31468   0.07053 
H          H       0.31468   0.01443   0.07053 
H          H       0.98557   0.30025   0.07053 
H          H       0.69975   0.68532   0.07053 
H          H       0.67890   0.99110   0.27492 
H          H       0.00890   0.68780   0.27492 
H          H       0.31220   0.32110   0.27492 
H          H       0.32110   0.00890   0.27492 
H          H       0.99110   0.31220   0.27492 
H          H       0.68780   0.67890   0.27492 
H          H       0.57075   0.07950   0.11351 
H          H       0.92050   0.49125   0.11351 
H          H       0.50875   0.42925   0.11351 
H          H       0.42925   0.92050   0.11351 
H          H       0.07950   0.50875   0.11351 
H          H       0.49125   0.57075   0.11351 
H          H       0.60039   0.12881   0.14234 
H          H       0.87119   0.47158   0.14234 
H          H       0.52842   0.39961   0.14234 
H          H       0.39961   0.87119   0.14234 
H          H       0.12881   0.52842   0.14234 
H          H       0.47158   0.60039   0.14234 
H          H       0.54971   0.14222   0.30990 
H          H       0.85778   0.40749   0.30990 
H          H       0.59251   0.45029   0.30990 
H          H       0.45029   0.85778   0.30990 
H          H       0.14222   0.59251   0.30990 
H          H       0.40749   0.54971   0.30990 
H          H       0.52107   0.09299   0.27180 
H          H       0.90701   0.42808   0.27180 
H          H       0.57192   0.47893   0.27180 
H          H       0.47893   0.90701   0.27180 
H          H       0.09299   0.57192   0.27180 
H          H       0.42808   0.52107   0.27180 
H          H       0.72613   0.03263   0.29073 
H          H       0.96737   0.69350   0.29073 
H          H       0.30650   0.27387   0.29073 
H          H       0.27387   0.96737   0.29073 
H          H       0.03263   0.30650   0.29073 
H          H       0.69350   0.72613   0.29073 
H          H       0.73259   0.02709   0.08646 
H          H       0.97291   0.70550   0.08646 
H          H       0.29450   0.26741   0.08646 
H          H       0.26741   0.97291   0.08646 
H          H       0.02709   0.29450   0.08646 
H          H       0.70550   0.73259   0.08646 
H          H       0.24706   0.99166   0.28182 
H          H       0.00834   0.25540   0.28182 
H          H       0.74460   0.75294   0.28182 
H          H       0.75294   0.00834   0.28182 
H          H       0.99166   0.74460   0.28182 
H          H       0.25540   0.24706   0.28182 
H          H       0.27320   0.01875   0.16119 
H          H       0.98125   0.25445   0.16119 
H          H       0.74555   0.72680   0.16119 
H          H       0.72680   0.98125   0.16119 
H          H       0.01875   0.74555   0.16119 
H          H       0.25445   0.27320   0.16119 
H          H       0.28056   0.01393   0.36582 
H          H       0.98607   0.26663   0.36582 
H          H       0.73337   0.71944   0.36582 
H          H       0.71944   0.98607   0.36582 
H          H       0.01393   0.73337   0.36582 
H          H       0.26663   0.28056   0.36582 
C          C       0.63654   0.27389   0.92341 
C          C       0.72611   0.36265   0.92341 
C          C       0.63735   0.36346   0.92341 
C          C       0.36346   0.72611   0.92341 
C          C       0.27389   0.63735   0.92341 
C          C       0.36265   0.63654   0.92341 
C          C       0.61218   0.25932   0.83454 
C          C       0.74068   0.35286   0.83454 
C          C       0.64714   0.38782   0.83454 
C          C       0.38782   0.74068   0.83454 
C          C       0.25932   0.64714   0.83454 
C          C       0.35286   0.61218   0.83454 
C          C       0.59765   0.23062   0.83535 
C          C       0.76938   0.36703   0.83535 
C          C       0.63297   0.40235   0.83535 
C          C       0.40235   0.76938   0.83535 
C          C       0.23062   0.63297   0.83535 
C          C       0.36703   0.59765   0.83535 
C          C       0.60710   0.21586   0.92349 
C          C       0.78414   0.39124   0.92349 
C          C       0.60876   0.39290   0.92349 
C          C       0.39290   0.78414   0.92349 
C          C       0.21586   0.60876   0.92349 
C          C       0.39124   0.60710   0.92349 
C          C       0.63162   0.23033   0.51140 
C          C       0.76967   0.40129   0.51140 
C          C       0.59871   0.36838   0.51140 
C          C       0.36838   0.76967   0.51140 
C          C       0.23033   0.59871   0.51140 
C          C       0.40129   0.63162   0.51140 
C          C       0.64607   0.25905   0.51201 
C          C       0.74095   0.38702   0.51201 
C          C       0.61298   0.35393   0.51201 
C          C       0.35393   0.74095   0.51201 
C          C       0.25905   0.61298   0.51201 
C          C       0.38702   0.64607   0.51201 
N          N       0.59133   0.18641   0.91738 
N          N       0.81359   0.40492   0.91738 
N          N       0.59508   0.40867   0.91738 
N          N       0.40867   0.81359   0.91738 
N          N       0.18641   0.59508   0.91738 
N          N       0.40492   0.59133   0.91738 
C          C       0.65197   0.30442   0.92343 
C          C       0.69558   0.34755   0.92343 
C          C       0.65245   0.34803   0.92343 
C          C       0.34803   0.69558   0.92343 
C          C       0.30442   0.65245   0.92343 
C          C       0.34755   0.65197   0.92343 
C          C       0.68079   0.31891   0.92341 
C          C       0.68109   0.36188   0.92341 
C          C       0.63812   0.31921   0.92341 
C          C       0.31921   0.68109   0.92341 
C          C       0.31891   0.63812   0.92341 
C          C       0.36188   0.68079   0.92341 
C          C       0.59538   0.16912   0.99962 
C          C       0.83088   0.42626   0.99962 
C          C       0.57374   0.40462   0.99962 
C          C       0.40462   0.83088   0.99962 
C          C       0.16912   0.57374   0.99962 
C          C       0.42626   0.59538   0.99962 
C          C       0.44945   0.00737   0.91698 
C          C       0.99263   0.44208   0.91698 
C          C       0.55792   0.55055   0.91698 
C          C       0.55055   0.99263   0.91698 
C          C       0.00737   0.55792   0.91698 
C          C       0.44208   0.44945   0.91698 
C          C       0.47754   0.01553   0.92131 
C          C       0.98447   0.46201   0.92131 
C          C       0.53799   0.52246   0.92131 
C          C       0.52246   0.98447   0.92131 
C          C       0.01553   0.53799   0.92131 
C          C       0.46201   0.47754   0.92131 
C          C       0.48569   0.99586   0.92458 
C          C       0.00414   0.48983   0.92458 
C          C       0.51017   0.51431   0.92458 
C          C       0.51431   0.00414   0.92458 
C          C       0.99586   0.51017   0.92458 
C          C       0.48983   0.48569   0.92458 
C          C       0.46544   0.96752   0.91924 
C          C       0.03248   0.49792   0.91924 
C          C       0.50208   0.53456   0.91924 
C          C       0.53456   0.03248   0.91924 
C          C       0.96752   0.50208   0.91924 
C          C       0.49792   0.46544   0.91924 
C          C       0.43766   0.96081   0.89704 
C          C       0.03919   0.47685   0.89704 
C          C       0.52315   0.56234   0.89704 
C          C       0.56234   0.03919   0.89704 
C          C       0.96081   0.52315   0.89704 
C          C       0.47685   0.43766   0.89704 
C          C       0.49745   0.04346   0.92274 
C          C       0.95654   0.45399   0.92274 
C          C       0.54601   0.50255   0.92274 
C          C       0.50255   0.95654   0.92274 
C          C       0.04346   0.54601   0.92274 
C          C       0.45399   0.49745   0.92274 
C          C       0.52574   0.05277   0.92351 
C          C       0.94723   0.47297   0.92351 
C          C       0.52703   0.47426   0.92351 
C          C       0.47426   0.94723   0.92351 
C          C       0.05277   0.52703   0.92351 
C          C       0.47297   0.52574   0.92351 
O          O       0.42046   0.93783   0.85508 
O          O       0.06217   0.48263   0.85508 
O          O       0.51737   0.57954   0.85508 
O          O       0.57954   0.06217   0.85508 
O          O       0.93783   0.51737   0.85508 
O          O       0.48263   0.42046   0.85508 
O          O       0.44289   0.02493   0.91042 
O          O       0.97507   0.41796   0.91042 
O          O       0.58204   0.55711   0.91042 
O          O       0.55711   0.97507   0.91042 
O          O       0.02493   0.58204   0.91042 
O          O       0.41796   0.44289   0.91042 
C          C       0.54364   0.08167   0.93782 
C          C       0.91833   0.46197   0.93782 
C          C       0.53803   0.45636   0.93782 
C          C       0.45636   0.91833   0.93782 
C          C       0.08167   0.53803   0.93782 
C          C       0.46197   0.54364   0.93782 
N          N       0.57019   0.02002   0.91408 
N          N       0.97998   0.55017   0.91408 
N          N       0.44983   0.42981   0.91408 
N          N       0.42981   0.97998   0.91408 
N          N       0.02002   0.44983   0.91408 
N          N       0.55017   0.57019   0.91408 
C          C       0.60030   0.03035   0.91397 
C          C       0.96965   0.56995   0.91397 
C          C       0.43005   0.39970   0.91397 
C          C       0.39970   0.96965   0.91397 
C          C       0.03035   0.43005   0.91397 
C          C       0.56995   0.60030   0.91397 
C          C       0.60962   0.01078   0.98084 
C          C       0.98922   0.59884   0.98084 
C          C       0.40116   0.39038   0.98084 
C          C       0.39038   0.98922   0.98084 
C          C       0.01078   0.40116   0.98084 
C          C       0.59884   0.60962   0.98084 
C          C       0.64061   0.02604   0.51399 
C          C       0.97396   0.61457   0.51399 
C          C       0.38543   0.35939   0.51399 
C          C       0.35939   0.97396   0.51399 
C          C       0.02604   0.38543   0.51399 
C          C       0.61457   0.64061   0.51399 
C          C       0.64994   0.00620   0.57274 
C          C       0.99380   0.64374   0.57274 
C          C       0.35626   0.35006   0.57274 
C          C       0.35006   0.99380   0.57274 
C          C       0.00620   0.35626   0.57274 
C          C       0.64374   0.64994   0.57274 
C          C       0.68087   0.02140   0.60600 
C          C       0.97860   0.65947   0.60600 
C          C       0.34053   0.31913   0.60600 
C          C       0.31913   0.97860   0.60600 
C          C       0.02140   0.34053   0.60600 
C          C       0.65947   0.68087   0.60600 
C          C       0.69021   0.00151   0.66367 
C          C       0.99849   0.68870   0.66367 
C          C       0.31130   0.30979   0.66367 
C          C       0.30979   0.99849   0.66367 
C          C       0.00151   0.31130   0.66367 
C          C       0.68870   0.69021   0.66367 
C          C       0.56631   0.09275   0.54239 
C          C       0.90725   0.47356   0.54239 
C          C       0.52644   0.43369   0.54239 
C          C       0.43369   0.90725   0.54239 
C          C       0.09275   0.52644   0.54239 
C          C       0.47356   0.56631   0.54239 
C          C       0.58320   0.12110   0.56019 
C          C       0.87890   0.46210   0.56019 
C          C       0.53790   0.41680   0.56019 
C          C       0.41680   0.87890   0.56019 
C          C       0.12110   0.53790   0.56019 
C          C       0.46210   0.58320   0.56019 
C          C       0.57740   0.13927   0.97779 
C          C       0.86073   0.43813   0.97779 
C          C       0.56187   0.42260   0.97779 
C          C       0.42260   0.86073   0.97779 
C          C       0.13927   0.56187   0.97779 
C          C       0.43813   0.57740   0.97779 
C          C       0.55444   0.12860   0.87668 
C          C       0.87140   0.42584   0.87668 
C          C       0.57416   0.44556   0.87668 
C          C       0.44556   0.87140   0.87668 
C          C       0.12860   0.57416   0.87668 
C          C       0.42584   0.55444   0.87668 
C          C       0.53780   0.10026   0.85697 
C          C       0.89974   0.43754   0.85697 
C          C       0.56246   0.46220   0.85697 
C          C       0.46220   0.89974   0.85697 
C          C       0.10026   0.56246   0.85697 
C          C       0.43754   0.53780   0.85697 
C          C       0.72112   0.01671   0.69737 
C          C       0.98329   0.70441   0.69737 
C          C       0.29559   0.27888   0.69737 
C          C       0.27888   0.98329   0.69737 
C          C       0.01671   0.29559   0.69737 
C          C       0.70441   0.72112   0.69737 
C          C       0.26938   0.00324   0.75507 
C          C       0.99676   0.26614   0.75507 
C          C       0.73386   0.73062   0.75507 
C          C       0.73062   0.99676   0.75507 
C          C       0.00324   0.73386   0.75507 
C          C       0.26614   0.26938   0.75507 
H          H       0.60478   0.27008   0.76060 
H          H       0.72992   0.33470   0.76060 
H          H       0.66530   0.39522   0.76060 
H          H       0.39522   0.72992   0.76060 
H          H       0.27008   0.66530   0.76060 
H          H       0.33470   0.60478   0.76060 
H          H       0.57910   0.21963   0.76482 
H          H       0.78037   0.35947   0.76482 
H          H       0.64053   0.42090   0.76482 
H          H       0.42090   0.78037   0.76482 
H          H       0.21963   0.64053   0.76482 
H          H       0.35947   0.57910   0.76482 
H          H       0.63965   0.21977   0.58112 
H          H       0.78023   0.41988   0.58112 
H          H       0.58012   0.36035   0.58112 
H          H       0.36035   0.78023   0.58112 
H          H       0.21977   0.58012   0.58112 
H          H       0.41988   0.63965   0.58112 
H          H       0.66433   0.26966   0.58539 
H          H       0.73034   0.39467   0.58539 
H          H       0.60533   0.33567   0.58539 
H          H       0.33567   0.73034   0.58539 
H          H       0.26966   0.60533   0.58539 
H          H       0.39467   0.66433   0.58539 
H          H       0.69177   0.30771   0.92336 
H          H       0.69229   0.38406   0.92336 
H          H       0.61594   0.30823   0.92336 
H          H       0.30823   0.69229   0.92336 
H          H       0.30771   0.61594   0.92336 
H          H       0.38406   0.69177   0.92336 
H          H       0.61181   0.17605   0.58615 
H          H       0.82395   0.43576   0.58615 
H          H       0.56424   0.38819   0.58615 
H          H       0.38819   0.82395   0.58615 
H          H       0.17605   0.56424   0.58615 
H          H       0.43576   0.61181   0.58615 
H          H       0.49057   0.05833   0.93115 
H          H       0.94167   0.43224   0.93115 
H          H       0.56776   0.50943   0.93115 
H          H       0.50943   0.94167   0.93115 
H          H       0.05833   0.56776   0.93115 
H          H       0.43224   0.49057   0.93115 
H          H       0.61048   0.04927   0.98901 
H          H       0.95073   0.56121   0.98901 
H          H       0.43879   0.38952   0.98901 
H          H       0.38952   0.95073   0.98901 
H          H       0.04927   0.43879   0.98901 
H          H       0.56121   0.61048   0.98901 
H          H       0.60837   0.03663   0.79042 
H          H       0.96337   0.57174   0.79042 
H          H       0.42826   0.39163   0.79042 
H          H       0.39163   0.96337   0.79042 
H          H       0.03663   0.42826   0.79042 
H          H       0.57174   0.60837   0.79042 
H          H       0.60521   0.99447   0.89120 
H          H       0.00553   0.61074   0.89120 
H          H       0.38926   0.39479   0.89120 
H          H       0.39479   0.00553   0.89120 
H          H       0.99447   0.38926   0.89120 
H          H       0.61074   0.60521   0.89120 
H          H       0.59841   0.00116   0.59372 
H          H       0.99884   0.59725   0.59372 
H          H       0.40275   0.40159   0.59372 
H          H       0.40159   0.99884   0.59372 
H          H       0.00116   0.40275   0.59372 
H          H       0.59725   0.59841   0.59372 
H          H       0.64568   0.04214   0.60632 
H          H       0.95786   0.60354   0.60632 
H          H       0.39646   0.35432   0.60632 
H          H       0.35432   0.95786   0.60632 
H          H       0.04214   0.39646   0.60632 
H          H       0.60354   0.64568   0.60632 
H          H       0.65186   0.03625   0.90220 
H          H       0.96375   0.61561   0.90220 
H          H       0.38439   0.34814   0.90220 
H          H       0.34814   0.96375   0.90220 
H          H       0.03625   0.38439   0.90220 
H          H       0.61561   0.65186   0.90220 
H          H       0.64500   0.99014   0.98027 
H          H       0.00986   0.65486   0.98027 
H          H       0.34514   0.35500   0.98027 
H          H       0.35500   0.00986   0.98027 
H          H       0.99014   0.34514   0.98027 
H          H       0.65486   0.64500   0.98027 
H          H       0.63866   0.99589   0.68425 
H          H       0.00411   0.64277   0.68425 
H          H       0.35723   0.36134   0.68425 
H          H       0.36134   0.00411   0.68425 
H          H       0.99589   0.35723   0.68425 
H          H       0.64277   0.63866   0.68425 
H          H       0.68582   0.03737   0.69901 
H          H       0.96263   0.64845   0.69901 
H          H       0.35155   0.31418   0.69901 
H          H       0.31418   0.96263   0.69901 
H          H       0.03737   0.35155   0.69901 
H          H       0.64845   0.68582   0.69901 
H          H       0.69214   0.03175   0.99455 
H          H       0.96825   0.66039   0.99455 
H          H       0.33961   0.30786   0.99455 
H          H       0.30786   0.96825   0.99455 
H          H       0.03175   0.33961   0.99455 
H          H       0.66039   0.69214   0.99455 
H          H       0.68532   0.98557   0.57053 
H          H       0.01443   0.69975   0.57053 
H          H       0.30025   0.31468   0.57053 
H          H       0.31468   0.01443   0.57053 
H          H       0.98557   0.30025   0.57053 
H          H       0.69975   0.68532   0.57053 
H          H       0.67890   0.99110   0.77492 
H          H       0.00890   0.68780   0.77492 
H          H       0.31220   0.32110   0.77492 
H          H       0.32110   0.00890   0.77492 
H          H       0.99110   0.31220   0.77492 
H          H       0.68780   0.67890   0.77492 
H          H       0.57075   0.07950   0.61351 
H          H       0.92050   0.49125   0.61351 
H          H       0.50875   0.42925   0.61351 
H          H       0.42925   0.92050   0.61351 
H          H       0.07950   0.50875   0.61351 
H          H       0.49125   0.57075   0.61351 
H          H       0.60039   0.12881   0.64234 
H          H       0.87119   0.47158   0.64234 
H          H       0.52842   0.39961   0.64234 
H          H       0.39961   0.87119   0.64234 
H          H       0.12881   0.52842   0.64234 
H          H       0.47158   0.60039   0.64234 
H          H       0.54971   0.14222   0.80990 
H          H       0.85778   0.40749   0.80990 
H          H       0.59251   0.45029   0.80990 
H          H       0.45029   0.85778   0.80990 
H          H       0.14222   0.59251   0.80990 
H          H       0.40749   0.54971   0.80990 
H          H       0.52107   0.09299   0.77180 
H          H       0.90701   0.42808   0.77180 
H          H       0.57192   0.47893   0.77180 
H          H       0.47893   0.90701   0.77180 
H          H       0.09299   0.57192   0.77180 
H          H       0.42808   0.52107   0.77180 
H          H       0.72613   0.03263   0.79073 
H          H       0.96737   0.69350   0.79073 
H          H       0.30650   0.27387   0.79073 
H          H       0.27387   0.96737   0.79073 
H          H       0.03263   0.30650   0.79073 
H          H       0.69350   0.72613   0.79073 
H          H       0.73259   0.02709   0.58646 
H          H       0.97291   0.70550   0.58646 
H          H       0.29450   0.26741   0.58646 
H          H       0.26741   0.97291   0.58646 
H          H       0.02709   0.29450   0.58646 
H          H       0.70550   0.73259   0.58646 
H          H       0.24706   0.99166   0.78182 
H          H       0.00834   0.25540   0.78182 
H          H       0.74460   0.75294   0.78182 
H          H       0.75294   0.00834   0.78182 
H          H       0.99166   0.74460   0.78182 
H          H       0.25540   0.24706   0.78182 
H          H       0.27320   0.01875   0.66119 
H          H       0.98125   0.25445   0.66119 
H          H       0.74555   0.72680   0.66119 
H          H       0.72680   0.98125   0.66119 
H          H       0.01875   0.74555   0.66119 
H          H       0.25445   0.27320   0.66119 
H          H       0.28056   0.01393   0.86582 
H          H       0.98607   0.26663   0.86582 
H          H       0.73337   0.71944   0.86582 
H          H       0.71944   0.98607   0.86582 
H          H       0.01393   0.73337   0.86582 
H          H       0.26663   0.28056   0.86582 
