data_crystal
 
_cell_length_a    50.40130
_cell_length_b    50.40130
_cell_length_c    8.48160
_cell_angle_alpha 90.00000
_cell_angle_beta  90.00000
_cell_angle_gamma 120.00000
 
_space_group_name_Hall 'P 1'
_space_group_name_H-M_alt  'P 1'
 
loop_
_symmetry_equiv_pos_as_xyz
 'x,y,z' 
 
loop_
_atom_site_label
_atom_site_type_symbol
_atom_site_fract_x
_atom_site_fract_y
_atom_site_fract_z
C          C       0.18725   0.61685   0.45670 
C          C       0.38315   0.57040   0.45670 
C          C       0.42960   0.81275   0.45670 
C          C       0.81275   0.38315   0.45670 
C          C       0.61685   0.42960   0.45670 
C          C       0.57040   0.18725   0.45670 
C          C       0.99244   0.55682   0.37205 
C          C       0.44318   0.43562   0.37205 
C          C       0.56438   0.00756   0.37205 
C          C       0.00756   0.44318   0.37205 
C          C       0.55682   0.56438   0.37205 
C          C       0.43562   0.99244   0.37205 
C          C       0.00810   0.54018   0.37953 
C          C       0.45982   0.46792   0.37953 
C          C       0.53208   0.99190   0.37953 
C          C       0.99190   0.45982   0.37953 
C          C       0.54018   0.53208   0.37953 
C          C       0.46792   0.00810   0.37953 
C          C       0.99184   0.50818   0.38412 
C          C       0.49182   0.48366   0.38412 
C          C       0.51634   0.00816   0.38412 
C          C       0.00816   0.49182   0.38412 
C          C       0.50818   0.51634   0.38412 
C          C       0.48366   0.99184   0.38412 
C          C       0.95922   0.49225   0.38055 
C          C       0.50775   0.46697   0.38055 
C          C       0.53303   0.04078   0.38055 
C          C       0.04078   0.50775   0.38055 
C          C       0.49225   0.53303   0.38055 
C          C       0.46697   0.95922   0.38055 
C          C       0.94461   0.50997   0.35845 
C          C       0.49003   0.43464   0.35845 
C          C       0.56536   0.05539   0.35845 
C          C       0.05539   0.49003   0.35845 
C          C       0.50997   0.56536   0.35845 
C          C       0.43464   0.94461   0.35845 
C          C       0.04017   0.55587   0.38308 
C          C       0.44413   0.48430   0.38308 
C          C       0.51570   0.95983   0.38308 
C          C       0.95983   0.44413   0.38308 
C          C       0.55587   0.51570   0.38308 
C          C       0.48430   0.04017   0.38308 
C          C       0.05714   0.54069   0.38688 
C          C       0.45931   0.51645   0.38688 
C          C       0.48355   0.94286   0.38688 
C          C       0.94286   0.45931   0.38688 
C          C       0.54069   0.48355   0.38688 
C          C       0.51645   0.05714   0.38688 
O          O       0.91759   0.49740   0.32261 
O          O       0.50260   0.42019   0.32261 
O          O       0.57981   0.08241   0.32261 
O          O       0.08241   0.50260   0.32261 
O          O       0.49740   0.57981   0.32261 
O          O       0.42019   0.91759   0.32261 
O          O       0.00708   0.58449   0.36249 
O          O       0.41551   0.42259   0.36249 
O          O       0.57741   0.99292   0.36249 
O          O       0.99292   0.41551   0.36249 
O          O       0.58449   0.57741   0.36249 
O          O       0.42259   0.00708   0.36249 
C          C       0.08949   0.55935   0.40470 
C          C       0.44065   0.53014   0.40470 
C          C       0.46986   0.91051   0.40470 
C          C       0.91051   0.44065   0.40470 
C          C       0.55935   0.46986   0.40470 
C          C       0.53014   0.08949   0.40470 
N          N       0.03927   0.45838   0.36991 
N          N       0.54162   0.58089   0.36991 
N          N       0.41911   0.96073   0.36991 
N          N       0.96073   0.54162   0.36991 
N          N       0.45838   0.41911   0.36991 
N          N       0.58089   0.03927   0.36991 
C          C       0.05753   0.44248   0.36608 
C          C       0.55752   0.61505   0.36608 
C          C       0.38495   0.94247   0.36608 
C          C       0.94247   0.55752   0.36608 
C          C       0.44248   0.38495   0.36608 
C          C       0.61505   0.05753   0.36608 
C          C       0.10594   0.55139   0.01007 
C          C       0.44861   0.55455   0.01007 
C          C       0.44545   0.89406   0.01007 
C          C       0.89406   0.44861   0.01007 
C          C       0.55139   0.44545   0.01007 
C          C       0.55455   0.10594   0.01007 
C          C       0.13763   0.56972   0.02724 
C          C       0.43028   0.56791   0.02724 
C          C       0.43209   0.86237   0.02724 
C          C       0.86237   0.43028   0.02724 
C          C       0.56972   0.43209   0.02724 
C          C       0.56791   0.13763   0.02724 
C          C       0.15368   0.59737   0.44393 
C          C       0.40263   0.55631   0.44393 
C          C       0.44369   0.84632   0.44393 
C          C       0.84632   0.40263   0.44393 
C          C       0.59737   0.44369   0.44393 
C          C       0.55631   0.15368   0.44393 
C          C       0.13742   0.60636   0.34445 
C          C       0.39364   0.53106   0.34445 
C          C       0.46894   0.86258   0.34445 
C          C       0.86258   0.39364   0.34445 
C          C       0.60636   0.46894   0.34445 
C          C       0.53106   0.13742   0.34445 
C          C       0.10581   0.58770   0.32506 
C          C       0.41230   0.51811   0.32506 
C          C       0.48189   0.89419   0.32506 
C          C       0.89419   0.41230   0.32506 
C          C       0.58770   0.48189   0.32506 
C          C       0.51811   0.10581   0.32506 
C          C       0.69983   0.34656   0.10018 
C          C       0.65344   0.35327   0.10018 
C          C       0.64673   0.30017   0.10018 
C          C       0.30017   0.65344   0.10018 
C          C       0.34656   0.64673   0.10018 
C          C       0.35327   0.69983   0.10018 
C          C       0.71315   0.33219   0.01525 
C          C       0.66781   0.38096   0.01525 
C          C       0.61904   0.28685   0.01525 
C          C       0.28685   0.66781   0.01525 
C          C       0.33219   0.61904   0.01525 
C          C       0.38096   0.71315   0.01525 
C          C       0.74489   0.34578   0.00028 
C          C       0.65422   0.39911   0.00028 
C          C       0.60089   0.25511   0.00028 
C          C       0.25511   0.65422   0.00028 
C          C       0.34578   0.60089   0.00028 
C          C       0.39911   0.74489   0.00028 
C          C       0.76434   0.37445   0.06974 
C          C       0.62555   0.38989   0.06974 
C          C       0.61011   0.23566   0.06974 
C          C       0.23566   0.62555   0.06974 
C          C       0.37445   0.61011   0.06974 
C          C       0.38989   0.76434   0.06974 
C          C       0.75134   0.38836   0.15910 
C          C       0.61164   0.36298   0.15910 
C          C       0.63702   0.24866   0.15910 
C          C       0.24866   0.61164   0.15910 
C          C       0.38836   0.63702   0.15910 
C          C       0.36298   0.75134   0.15910 
C          C       0.71956   0.37465   0.17419 
C          C       0.62535   0.34491   0.17419 
C          C       0.65509   0.28044   0.17419 
C          C       0.28044   0.62535   0.17419 
C          C       0.37465   0.65509   0.17419 
C          C       0.34491   0.71956   0.17419 
N          N       0.79708   0.39060   0.05012 
N          N       0.60940   0.40648   0.05012 
N          N       0.59352   0.20292   0.05012 
N          N       0.20292   0.60940   0.05012 
N          N       0.39060   0.59352   0.05012 
N          N       0.40648   0.79708   0.05012 
C          C       0.95808   0.59025   0.43443 
C          C       0.40975   0.36783   0.43443 
C          C       0.63217   0.04192   0.43443 
C          C       0.04192   0.40975   0.43443 
C          C       0.59025   0.63217   0.43443 
C          C       0.36783   0.95808   0.43443 
C          C       0.93461   0.60048   0.46782 
C          C       0.39952   0.33413   0.46782 
C          C       0.66587   0.06539   0.46782 
C          C       0.06539   0.39952   0.46782 
C          C       0.60048   0.66587   0.46782 
C          C       0.33413   0.93461   0.46782 
C          C       0.95041   0.63361   0.02756 
C          C       0.36639   0.31680   0.02756 
C          C       0.68320   0.04959   0.02756 
C          C       0.04959   0.36639   0.02756 
C          C       0.63361   0.68320   0.02756 
C          C       0.31680   0.95041   0.02756 
C          C       0.92695   0.64376   0.06188 
C          C       0.35624   0.28319   0.06188 
C          C       0.71681   0.07305   0.06188 
C          C       0.07305   0.35624   0.06188 
C          C       0.64376   0.71681   0.06188 
C          C       0.28319   0.92695   0.06188 
C          C       0.94276   0.67697   0.12033 
C          C       0.32303   0.26579   0.12033 
C          C       0.73421   0.05724   0.12033 
C          C       0.05724   0.32303   0.12033 
C          C       0.67697   0.73421   0.12033 
C          C       0.26579   0.94276   0.12033 
C          C       0.91930   0.68708   0.15512 
C          C       0.31292   0.23222   0.15512 
C          C       0.76778   0.08070   0.15512 
C          C       0.08070   0.31292   0.15512 
C          C       0.68708   0.76778   0.15512 
C          C       0.23222   0.91930   0.15512 
C          C       0.93496   0.72014   0.21325 
C          C       0.27986   0.21482   0.21325 
C          C       0.78518   0.06504   0.21325 
C          C       0.06504   0.27986   0.21325 
C          C       0.72014   0.78518   0.21325 
C          C       0.21482   0.93496   0.21325 
H          H       0.19843   0.63688   0.38221 
H          H       0.36312   0.56155   0.38221 
H          H       0.43845   0.80157   0.38221 
H          H       0.80157   0.36312   0.38221 
H          H       0.63688   0.43845   0.38221 
H          H       0.56155   0.19843   0.38221 
H          H       0.05216   0.58063   0.39118 
H          H       0.41937   0.47153   0.39118 
H          H       0.52847   0.94784   0.39118 
H          H       0.94784   0.41937   0.39118 
H          H       0.58063   0.52847   0.39118 
H          H       0.47153   0.05216   0.39118 
H          H       0.07876   0.45620   0.43660 
H          H       0.54380   0.62256   0.43660 
H          H       0.37744   0.92124   0.43660 
H          H       0.92124   0.54380   0.43660 
H          H       0.45620   0.37744   0.43660 
H          H       0.62256   0.07876   0.43660 
H          H       0.06491   0.44222   0.24314 
H          H       0.55778   0.62269   0.24314 
H          H       0.37731   0.93509   0.24314 
H          H       0.93509   0.55778   0.24314 
H          H       0.44222   0.37731   0.24314 
H          H       0.62269   0.06491   0.24314 
H          H       0.09417   0.53089   0.07993 
H          H       0.46911   0.56328   0.07993 
H          H       0.43672   0.90583   0.07993 
H          H       0.90583   0.46911   0.07993 
H          H       0.53089   0.43672   0.07993 
H          H       0.56328   0.09417   0.07993 
H          H       0.14945   0.56239   0.10735 
H          H       0.43761   0.58706   0.10735 
H          H       0.41294   0.85055   0.10735 
H          H       0.85055   0.43761   0.10735 
H          H       0.56239   0.41294   0.10735 
H          H       0.58706   0.14945   0.10735 
H          H       0.14929   0.62756   0.27852 
H          H       0.37244   0.52173   0.27852 
H          H       0.47827   0.85071   0.27852 
H          H       0.85071   0.37244   0.27852 
H          H       0.62756   0.47827   0.27852 
H          H       0.52173   0.14929   0.27852 
H          H       0.09445   0.59494   0.24150 
H          H       0.40506   0.49951   0.24150 
H          H       0.50049   0.90555   0.24150 
H          H       0.90555   0.40506   0.24150 
H          H       0.59494   0.50049   0.24150 
H          H       0.49951   0.09445   0.24150 
H          H       0.69907   0.31046   0.45891 
H          H       0.68954   0.38861   0.45891 
H          H       0.61139   0.30093   0.45891 
H          H       0.30093   0.68954   0.45891 
H          H       0.31046   0.61139   0.45891 
H          H       0.38861   0.69907   0.45891 
H          H       0.75371   0.33368   0.43315 
H          H       0.66632   0.42003   0.43315 
H          H       0.57997   0.24629   0.43315 
H          H       0.24629   0.66632   0.43315 
H          H       0.33368   0.57997   0.43315 
H          H       0.42003   0.75371   0.43315 
H          H       0.76593   0.41030   0.21467 
H          H       0.58970   0.35563   0.21467 
H          H       0.64437   0.23407   0.21467 
H          H       0.23407   0.58970   0.21467 
H          H       0.41030   0.64437   0.21467 
H          H       0.35563   0.76593   0.21467 
H          H       0.71045   0.38660   0.23935 
H          H       0.61340   0.32385   0.23935 
H          H       0.67615   0.28955   0.23935 
H          H       0.28955   0.61340   0.23935 
H          H       0.38660   0.67615   0.23935 
H          H       0.32385   0.71045   0.23935 
H          H       0.97480   0.60647   0.34743 
H          H       0.39353   0.36833   0.34743 
H          H       0.63167   0.02520   0.34743 
H          H       0.02520   0.39353   0.34743 
H          H       0.60647   0.63167   0.34743 
H          H       0.36833   0.97480   0.34743 
H          H       0.97014   0.59119   0.04578 
H          H       0.40881   0.37895   0.04578 
H          H       0.62105   0.02986   0.04578 
H          H       0.02986   0.40881   0.04578 
H          H       0.59119   0.62105   0.04578 
H          H       0.37895   0.97014   0.04578 
H          H       0.91798   0.58517   0.05797 
H          H       0.41483   0.33281   0.05797 
H          H       0.66719   0.08202   0.05797 
H          H       0.08202   0.41483   0.05797 
H          H       0.58517   0.66719   0.05797 
H          H       0.33281   0.91798   0.05797 
H          H       0.92181   0.59865   0.35784 
H          H       0.40135   0.32316   0.35784 
H          H       0.67684   0.07819   0.35784 
H          H       0.07819   0.40135   0.35784 
H          H       0.59865   0.67684   0.35784 
H          H       0.32316   0.92181   0.35784 
H          H       0.96690   0.64899   0.43708 
H          H       0.35101   0.31791   0.43708 
H          H       0.68209   0.03310   0.43708 
H          H       0.03310   0.35101   0.43708 
H          H       0.64899   0.68209   0.43708 
H          H       0.31791   0.96690   0.43708 
H          H       0.96335   0.63548   0.13706 
H          H       0.36452   0.32787   0.13706 
H          H       0.67213   0.03665   0.13706 
H          H       0.03665   0.36452   0.13706 
H          H       0.63548   0.67213   0.13706 
H          H       0.32787   0.96335   0.13706 
H          H       0.91055   0.62850   0.15302 
H          H       0.37150   0.28205   0.15302 
H          H       0.71795   0.08945   0.15302 
H          H       0.08945   0.37150   0.15302 
H          H       0.62850   0.71795   0.15302 
H          H       0.28205   0.91055   0.15302 
H          H       0.91389   0.64173   0.45258 
H          H       0.35827   0.27216   0.45258 
H          H       0.72784   0.08611   0.45258 
H          H       0.08611   0.35827   0.45258 
H          H       0.64173   0.72784   0.45258 
H          H       0.27216   0.91389   0.45258 
H          H       0.95910   0.69224   0.02903 
H          H       0.30776   0.26686   0.02903 
H          H       0.73314   0.04090   0.02903 
H          H       0.04090   0.30776   0.02903 
H          H       0.69224   0.73314   0.02903 
H          H       0.26686   0.95910   0.02903 
H          H       0.95588   0.67902   0.22945 
H          H       0.32098   0.27686   0.22945 
H          H       0.72314   0.04412   0.22945 
H          H       0.04412   0.32098   0.22945 
H          H       0.67902   0.72314   0.22945 
H          H       0.27686   0.95588   0.22945 
H          H       0.90295   0.67198   0.24677 
H          H       0.32802   0.23097   0.24677 
H          H       0.76903   0.09705   0.24677 
H          H       0.09705   0.32802   0.24677 
H          H       0.67198   0.76903   0.24677 
H          H       0.23097   0.90295   0.24677 
H          H       0.90613   0.68518   0.04644 
H          H       0.31482   0.22095   0.04644 
H          H       0.77905   0.09387   0.04644 
H          H       0.09387   0.31482   0.04644 
H          H       0.68518   0.77905   0.04644 
H          H       0.22095   0.90613   0.04644 
H          H       0.95066   0.73586   0.12142 
H          H       0.26414   0.21480   0.12142 
H          H       0.78520   0.04934   0.12142 
H          H       0.04934   0.26414   0.12142 
H          H       0.73586   0.78520   0.12142 
H          H       0.21480   0.95066   0.12142 
H          H       0.94823   0.72269   0.32226 
H          H       0.27731   0.22554   0.32226 
H          H       0.77446   0.05177   0.32226 
H          H       0.05177   0.27731   0.32226 
H          H       0.72269   0.77446   0.32226 
H          H       0.22554   0.94823   0.32226 
H          H       0.91740   0.72666   0.23986 
H          H       0.27334   0.19074   0.23986 
H          H       0.80926   0.08260   0.23986 
H          H       0.08260   0.27334   0.23986 
H          H       0.72666   0.80926   0.23986 
H          H       0.19074   0.91740   0.23986 
N          N       0.33333   0.66667   0.10618 
N          N       0.66667   0.33333   0.10618 
C          C       0.18725   0.61685   0.95670 
C          C       0.38315   0.57040   0.95670 
C          C       0.42960   0.81275   0.95670 
C          C       0.81275   0.38315   0.95670 
C          C       0.61685   0.42960   0.95670 
C          C       0.57040   0.18725   0.95670 
C          C       0.99244   0.55682   0.87205 
C          C       0.44318   0.43562   0.87205 
C          C       0.56438   0.00756   0.87205 
C          C       0.00756   0.44318   0.87205 
C          C       0.55682   0.56438   0.87205 
C          C       0.43562   0.99244   0.87205 
C          C       0.00810   0.54018   0.87952 
C          C       0.45982   0.46792   0.87952 
C          C       0.53208   0.99190   0.87952 
C          C       0.99190   0.45982   0.87952 
C          C       0.54018   0.53208   0.87952 
C          C       0.46792   0.00810   0.87952 
C          C       0.99184   0.50818   0.88412 
C          C       0.49182   0.48366   0.88412 
C          C       0.51634   0.00816   0.88412 
C          C       0.00816   0.49182   0.88412 
C          C       0.50818   0.51634   0.88412 
C          C       0.48366   0.99184   0.88412 
C          C       0.95922   0.49225   0.88055 
C          C       0.50775   0.46697   0.88055 
C          C       0.53303   0.04078   0.88055 
C          C       0.04078   0.50775   0.88055 
C          C       0.49225   0.53303   0.88055 
C          C       0.46697   0.95922   0.88055 
C          C       0.94461   0.50997   0.85845 
C          C       0.49003   0.43464   0.85845 
C          C       0.56536   0.05539   0.85845 
C          C       0.05539   0.49003   0.85845 
C          C       0.50997   0.56536   0.85845 
C          C       0.43464   0.94461   0.85845 
C          C       0.04017   0.55587   0.88308 
C          C       0.44413   0.48430   0.88308 
C          C       0.51570   0.95983   0.88308 
C          C       0.95983   0.44413   0.88308 
C          C       0.55587   0.51570   0.88308 
C          C       0.48430   0.04017   0.88308 
C          C       0.05714   0.54069   0.88688 
C          C       0.45931   0.51645   0.88688 
C          C       0.48355   0.94286   0.88688 
C          C       0.94286   0.45931   0.88688 
C          C       0.54069   0.48355   0.88688 
C          C       0.51645   0.05714   0.88688 
O          O       0.91759   0.49740   0.82261 
O          O       0.50260   0.42019   0.82261 
O          O       0.57981   0.08241   0.82261 
O          O       0.08241   0.50260   0.82261 
O          O       0.49740   0.57981   0.82261 
O          O       0.42019   0.91759   0.82261 
O          O       0.00708   0.58449   0.86249 
O          O       0.41551   0.42259   0.86249 
O          O       0.57741   0.99292   0.86249 
O          O       0.99292   0.41551   0.86249 
O          O       0.58449   0.57741   0.86249 
O          O       0.42259   0.00708   0.86249 
C          C       0.08949   0.55935   0.90470 
C          C       0.44065   0.53014   0.90470 
C          C       0.46986   0.91051   0.90470 
C          C       0.91051   0.44065   0.90470 
C          C       0.55935   0.46986   0.90470 
C          C       0.53014   0.08949   0.90470 
N          N       0.03927   0.45838   0.86991 
N          N       0.54162   0.58089   0.86991 
N          N       0.41911   0.96073   0.86991 
N          N       0.96073   0.54162   0.86991 
N          N       0.45838   0.41911   0.86991 
N          N       0.58089   0.03927   0.86991 
C          C       0.05753   0.44248   0.86608 
C          C       0.55752   0.61505   0.86608 
C          C       0.38495   0.94247   0.86608 
C          C       0.94247   0.55752   0.86608 
C          C       0.44248   0.38495   0.86608 
C          C       0.61505   0.05753   0.86608 
C          C       0.10594   0.55139   0.51007 
C          C       0.44861   0.55455   0.51007 
C          C       0.44545   0.89406   0.51007 
C          C       0.89406   0.44861   0.51007 
C          C       0.55139   0.44545   0.51007 
C          C       0.55455   0.10594   0.51007 
C          C       0.13763   0.56972   0.52724 
C          C       0.43028   0.56791   0.52724 
C          C       0.43209   0.86237   0.52724 
C          C       0.86237   0.43028   0.52724 
C          C       0.56972   0.43209   0.52724 
C          C       0.56791   0.13763   0.52724 
C          C       0.15368   0.59737   0.94392 
C          C       0.40263   0.55631   0.94392 
C          C       0.44369   0.84632   0.94392 
C          C       0.84632   0.40263   0.94392 
C          C       0.59737   0.44369   0.94392 
C          C       0.55631   0.15368   0.94392 
C          C       0.13742   0.60636   0.84445 
C          C       0.39364   0.53106   0.84445 
C          C       0.46894   0.86258   0.84445 
C          C       0.86258   0.39364   0.84445 
C          C       0.60636   0.46894   0.84445 
C          C       0.53106   0.13742   0.84445 
C          C       0.10581   0.58770   0.82506 
C          C       0.41230   0.51811   0.82506 
C          C       0.48189   0.89419   0.82506 
C          C       0.89419   0.41230   0.82506 
C          C       0.58770   0.48189   0.82506 
C          C       0.51811   0.10581   0.82506 
C          C       0.69983   0.34656   0.60018 
C          C       0.65344   0.35327   0.60018 
C          C       0.64673   0.30017   0.60018 
C          C       0.30017   0.65344   0.60018 
C          C       0.34656   0.64673   0.60018 
C          C       0.35327   0.69983   0.60018 
C          C       0.71315   0.33219   0.51525 
C          C       0.66781   0.38096   0.51525 
C          C       0.61904   0.28685   0.51525 
C          C       0.28685   0.66781   0.51525 
C          C       0.33219   0.61904   0.51525 
C          C       0.38096   0.71315   0.51525 
C          C       0.74489   0.34578   0.50028 
C          C       0.65422   0.39911   0.50028 
C          C       0.60089   0.25511   0.50028 
C          C       0.25511   0.65422   0.50028 
C          C       0.34578   0.60089   0.50028 
C          C       0.39911   0.74489   0.50028 
C          C       0.76434   0.37445   0.56974 
C          C       0.62555   0.38989   0.56974 
C          C       0.61011   0.23566   0.56974 
C          C       0.23566   0.62555   0.56974 
C          C       0.37445   0.61011   0.56974 
C          C       0.38989   0.76434   0.56974 
C          C       0.75134   0.38836   0.65910 
C          C       0.61164   0.36298   0.65910 
C          C       0.63702   0.24866   0.65910 
C          C       0.24866   0.61164   0.65910 
C          C       0.38836   0.63702   0.65910 
C          C       0.36298   0.75134   0.65910 
C          C       0.71956   0.37465   0.67419 
C          C       0.62535   0.34491   0.67419 
C          C       0.65509   0.28044   0.67419 
C          C       0.28044   0.62535   0.67419 
C          C       0.37465   0.65509   0.67419 
C          C       0.34491   0.71956   0.67419 
N          N       0.79708   0.39060   0.55012 
N          N       0.60940   0.40648   0.55012 
N          N       0.59352   0.20292   0.55012 
N          N       0.20292   0.60940   0.55012 
N          N       0.39060   0.59352   0.55012 
N          N       0.40648   0.79708   0.55012 
C          C       0.95808   0.59025   0.93442 
C          C       0.40975   0.36783   0.93442 
C          C       0.63217   0.04192   0.93442 
C          C       0.04192   0.40975   0.93442 
C          C       0.59025   0.63217   0.93442 
C          C       0.36783   0.95808   0.93442 
C          C       0.93461   0.60048   0.96782 
C          C       0.39952   0.33413   0.96782 
C          C       0.66587   0.06539   0.96782 
C          C       0.06539   0.39952   0.96782 
C          C       0.60048   0.66587   0.96782 
C          C       0.33413   0.93461   0.96782 
C          C       0.95041   0.63361   0.52756 
C          C       0.36639   0.31680   0.52756 
C          C       0.68320   0.04959   0.52756 
C          C       0.04959   0.36639   0.52756 
C          C       0.63361   0.68320   0.52756 
C          C       0.31680   0.95041   0.52756 
C          C       0.92695   0.64376   0.56188 
C          C       0.35624   0.28319   0.56188 
C          C       0.71681   0.07305   0.56188 
C          C       0.07305   0.35624   0.56188 
C          C       0.64376   0.71681   0.56188 
C          C       0.28319   0.92695   0.56188 
C          C       0.94276   0.67697   0.62033 
C          C       0.32303   0.26579   0.62033 
C          C       0.73421   0.05724   0.62033 
C          C       0.05724   0.32303   0.62033 
C          C       0.67697   0.73421   0.62033 
C          C       0.26579   0.94276   0.62033 
C          C       0.91930   0.68708   0.65512 
C          C       0.31292   0.23222   0.65512 
C          C       0.76778   0.08070   0.65512 
C          C       0.08070   0.31292   0.65512 
C          C       0.68708   0.76778   0.65512 
C          C       0.23222   0.91930   0.65512 
C          C       0.93496   0.72014   0.71326 
C          C       0.27986   0.21482   0.71326 
C          C       0.78518   0.06504   0.71326 
C          C       0.06504   0.27986   0.71326 
C          C       0.72014   0.78518   0.71326 
C          C       0.21482   0.93496   0.71326 
H          H       0.19843   0.63688   0.88221 
H          H       0.36312   0.56155   0.88221 
H          H       0.43845   0.80157   0.88221 
H          H       0.80157   0.36312   0.88221 
H          H       0.63688   0.43845   0.88221 
H          H       0.56155   0.19843   0.88221 
H          H       0.05216   0.58063   0.89118 
H          H       0.41937   0.47153   0.89118 
H          H       0.52847   0.94784   0.89118 
H          H       0.94784   0.41937   0.89118 
H          H       0.58063   0.52847   0.89118 
H          H       0.47153   0.05216   0.89118 
H          H       0.07876   0.45620   0.93660 
H          H       0.54380   0.62256   0.93660 
H          H       0.37744   0.92124   0.93660 
H          H       0.92124   0.54380   0.93660 
H          H       0.45620   0.37744   0.93660 
H          H       0.62256   0.07876   0.93660 
H          H       0.06491   0.44222   0.74314 
H          H       0.55778   0.62269   0.74314 
H          H       0.37731   0.93509   0.74314 
H          H       0.93509   0.55778   0.74314 
H          H       0.44222   0.37731   0.74314 
H          H       0.62269   0.06491   0.74314 
H          H       0.09417   0.53089   0.57993 
H          H       0.46911   0.56328   0.57993 
H          H       0.43672   0.90583   0.57993 
H          H       0.90583   0.46911   0.57993 
H          H       0.53089   0.43672   0.57993 
H          H       0.56328   0.09417   0.57993 
H          H       0.14945   0.56239   0.60735 
H          H       0.43761   0.58706   0.60735 
H          H       0.41294   0.85055   0.60735 
H          H       0.85055   0.43761   0.60735 
H          H       0.56239   0.41294   0.60735 
H          H       0.58706   0.14945   0.60735 
H          H       0.14929   0.62756   0.77852 
H          H       0.37244   0.52173   0.77852 
H          H       0.47827   0.85071   0.77852 
H          H       0.85071   0.37244   0.77852 
H          H       0.62756   0.47827   0.77852 
H          H       0.52173   0.14929   0.77852 
H          H       0.09445   0.59494   0.74150 
H          H       0.40506   0.49951   0.74150 
H          H       0.50049   0.90555   0.74150 
H          H       0.90555   0.40506   0.74150 
H          H       0.59494   0.50049   0.74150 
H          H       0.49951   0.09445   0.74150 
H          H       0.69907   0.31046   0.95891 
H          H       0.68954   0.38861   0.95891 
H          H       0.61139   0.30093   0.95891 
H          H       0.30093   0.68954   0.95891 
H          H       0.31046   0.61139   0.95891 
H          H       0.38861   0.69907   0.95891 
H          H       0.75371   0.33368   0.93315 
H          H       0.66632   0.42003   0.93315 
H          H       0.57997   0.24629   0.93315 
H          H       0.24629   0.66632   0.93315 
H          H       0.33368   0.57997   0.93315 
H          H       0.42003   0.75371   0.93315 
H          H       0.76593   0.41030   0.71467 
H          H       0.58970   0.35563   0.71467 
H          H       0.64437   0.23407   0.71467 
H          H       0.23407   0.58970   0.71467 
H          H       0.41030   0.64437   0.71467 
H          H       0.35563   0.76593   0.71467 
H          H       0.71045   0.38660   0.73935 
H          H       0.61340   0.32385   0.73935 
H          H       0.67615   0.28955   0.73935 
H          H       0.28955   0.61340   0.73935 
H          H       0.38660   0.67615   0.73935 
H          H       0.32385   0.71045   0.73935 
H          H       0.97480   0.60647   0.84744 
H          H       0.39353   0.36833   0.84744 
H          H       0.63167   0.02520   0.84744 
H          H       0.02520   0.39353   0.84744 
H          H       0.60647   0.63167   0.84744 
H          H       0.36833   0.97480   0.84744 
H          H       0.97014   0.59119   0.54578 
H          H       0.40881   0.37895   0.54578 
H          H       0.62105   0.02986   0.54578 
H          H       0.02986   0.40881   0.54578 
H          H       0.59119   0.62105   0.54578 
H          H       0.37895   0.97014   0.54578 
H          H       0.91798   0.58517   0.55797 
H          H       0.41483   0.33281   0.55797 
H          H       0.66719   0.08202   0.55797 
H          H       0.08202   0.41483   0.55797 
H          H       0.58517   0.66719   0.55797 
H          H       0.33281   0.91798   0.55797 
H          H       0.92181   0.59865   0.85784 
H          H       0.40135   0.32316   0.85784 
H          H       0.67684   0.07819   0.85784 
H          H       0.07819   0.40135   0.85784 
H          H       0.59865   0.67684   0.85784 
H          H       0.32316   0.92181   0.85784 
H          H       0.96690   0.64899   0.93708 
H          H       0.35101   0.31791   0.93708 
H          H       0.68209   0.03310   0.93708 
H          H       0.03310   0.35101   0.93708 
H          H       0.64899   0.68209   0.93708 
H          H       0.31791   0.96690   0.93708 
H          H       0.96335   0.63548   0.63706 
H          H       0.36452   0.32787   0.63706 
H          H       0.67213   0.03665   0.63706 
H          H       0.03665   0.36452   0.63706 
H          H       0.63548   0.67213   0.63706 
H          H       0.32787   0.96335   0.63706 
H          H       0.91055   0.62850   0.65302 
H          H       0.37150   0.28205   0.65302 
H          H       0.71795   0.08945   0.65302 
H          H       0.08945   0.37150   0.65302 
H          H       0.62850   0.71795   0.65302 
H          H       0.28205   0.91055   0.65302 
H          H       0.91389   0.64173   0.95258 
H          H       0.35827   0.27216   0.95258 
H          H       0.72784   0.08611   0.95258 
H          H       0.08611   0.35827   0.95258 
H          H       0.64173   0.72784   0.95258 
H          H       0.27216   0.91389   0.95258 
H          H       0.95910   0.69224   0.52903 
H          H       0.30776   0.26686   0.52903 
H          H       0.73314   0.04090   0.52903 
H          H       0.04090   0.30776   0.52903 
H          H       0.69224   0.73314   0.52903 
H          H       0.26686   0.95910   0.52903 
H          H       0.95588   0.67902   0.72945 
H          H       0.32098   0.27686   0.72945 
H          H       0.72314   0.04412   0.72945 
H          H       0.04412   0.32098   0.72945 
H          H       0.67902   0.72314   0.72945 
H          H       0.27686   0.95588   0.72945 
H          H       0.90295   0.67198   0.74677 
H          H       0.32802   0.23097   0.74677 
H          H       0.76903   0.09705   0.74677 
H          H       0.09705   0.32802   0.74677 
H          H       0.67198   0.76903   0.74677 
H          H       0.23097   0.90295   0.74677 
H          H       0.90613   0.68518   0.54644 
H          H       0.31482   0.22095   0.54644 
H          H       0.77905   0.09387   0.54644 
H          H       0.09387   0.31482   0.54644 
H          H       0.68518   0.77905   0.54644 
H          H       0.22095   0.90613   0.54644 
H          H       0.95066   0.73586   0.62142 
H          H       0.26414   0.21480   0.62142 
H          H       0.78520   0.04934   0.62142 
H          H       0.04934   0.26414   0.62142 
H          H       0.73586   0.78520   0.62142 
H          H       0.21480   0.95066   0.62142 
H          H       0.94823   0.72269   0.82226 
H          H       0.27731   0.22554   0.82226 
H          H       0.77446   0.05177   0.82226 
H          H       0.05177   0.27731   0.82226 
H          H       0.72269   0.77446   0.82226 
H          H       0.22554   0.94823   0.82226 
H          H       0.91740   0.72666   0.73986 
H          H       0.27334   0.19074   0.73986 
H          H       0.80926   0.08260   0.73986 
H          H       0.08260   0.27334   0.73986 
H          H       0.72666   0.80926   0.73986 
H          H       0.19074   0.91740   0.73986 
N          N       0.33333   0.66667   0.60618 
N          N       0.66667   0.33333   0.60618 
