data_crystal
 
_cell_length_a    17.80000
_cell_length_b    18.30000
_cell_length_c    19.20000
_cell_angle_alpha 90.20000
_cell_angle_beta  88.20000
_cell_angle_gamma 92.10000
 
_symmetry_space_group_name_Hall 'P 1'
_symmetry_space_group_name_H-M  'P 1'
 
loop_
_symmetry_equiv_pos_as_xyz
 'x,y,z' 
 
loop_
_atom_site_label
_atom_site_type_symbol
_atom_site_fract_x
_atom_site_fract_y
_atom_site_fract_z
C          C       0.20914   0.80701   0.43587 
C          C       0.15107   0.86019   0.43623 
C          C       0.25152   0.76863   0.37669 
N          N       0.31479   0.72657   0.38633 
C          C       0.36096   0.67321   0.34636 
C          C       0.33882   0.64526   0.28070 
C          C       0.38353   0.59117   0.24853 
C          C       0.45178   0.56726   0.28073 
C          C       0.47540   0.59686   0.34501 
C          C       0.42991   0.64975   0.37807 
C          C       0.79209   0.20048   0.43730 
C          C       0.85004   0.14721   0.43748 
C          C       0.75104   0.24539   0.37881 
N          N       0.69359   0.29387   0.38969 
C          C       0.64454   0.34703   0.34941 
C          C       0.65480   0.36321   0.27926 
C          C       0.60691   0.41718   0.24651 
C          C       0.54863   0.45420   0.28052 
C          C       0.53984   0.43675   0.35061 
C          C       0.58693   0.38335   0.38497 
C          C       0.88597   0.83212   0.48591 
C          C       0.96127   0.85101   0.49115 
C          C       0.97941   0.92446   0.49584 
C          C       0.17596   0.88149   0.01544 
C          C       0.15463   0.95618   0.01015 
C          C       0.07805   0.97765   0.00503 
N          N       0.06100   0.94169   0.50036 
C          C       0.76899   0.77936   0.00206 
C          C       0.88145   0.88482   0.00082 
C          C       0.79570   0.80923   0.06535 
C          C       0.85258   0.86168   0.06447 
C          C       0.75052   0.76835   0.11939 
N          N       0.69061   0.72552   0.10856 
C          C       0.64383   0.67238   0.14416 
C          C       0.66498   0.63863   0.20862 
C          C       0.61989   0.58472   0.23709 
C          C       0.55180   0.56585   0.20253 
C          C       0.53112   0.59877   0.13784 
C          C       0.57604   0.65229   0.10902 
C          C       0.20354   0.20076   0.06147 
C          C       0.14730   0.14773   0.06131 
C          C       0.24376   0.25035   0.11668 
N          N       0.30004   0.29642   0.10515 
C          C       0.34912   0.34988   0.14122 
C          C       0.34466   0.36818   0.21197 
C          C       0.39274   0.42036   0.24144 
C          C       0.44506   0.45603   0.20097 
C          C       0.44983   0.43652   0.13014 
C          C       0.40145   0.38433   0.10050 
C          C       0.12103   0.82773   0.01577 
C          C       0.04461   0.84942   0.01085 
C          C       0.02299   0.92410   0.00545 
C          C       0.82797   0.88562   0.48535 
C          C       0.84787   0.95945   0.48934 
C          C       0.92307   0.97850   0.49433 
N          N       0.93985   0.94161   0.00038 
C          C       0.23788   0.77650   0.49909 
C          C       0.12194   0.88360   0.49968 
C          C       0.49917   0.51121   0.23762 
H          H       0.12752   0.88441   0.38512 
H          H       0.22973   0.77490   0.32050 
H          H       0.28455   0.66650   0.25354 
H          H       0.36428   0.56688   0.19643 
H          H       0.53147   0.57804   0.37044 
H          H       0.44881   0.67360   0.43046 
H          H       0.87491   0.12847   0.38637 
H          H       0.76873   0.23863   0.32273 
H          H       0.70090   0.33318   0.24981 
H          H       0.61489   0.43228   0.18987 
H          H       0.49400   0.46578   0.38118 
H          H       0.57784   0.36993   0.44182 
H          H       0.87067   0.77205   0.48197 
H          H       0.00747   0.80637   0.49157 
H          H       0.23800   0.86423   0.01949 
H          H       0.19939   0.99943   0.01000 
H          H       0.72312   0.73720   0.00176 
H          H       0.87511   0.88530   0.11577 
H          H       0.76679   0.77242   0.17711 
H          H       0.71872   0.65493   0.23790 
H          H       0.63846   0.55650   0.28790 
H          H       0.47761   0.58209   0.10841 
H          H       0.55797   0.67942   0.05755 
H          H       0.12338   0.12966   0.11243 
H          H       0.22620   0.24984   0.17307 
H          H       0.30212   0.34072   0.24532 
H          H       0.38996   0.43461   0.29906 
H          H       0.49292   0.46300   0.09668 
H          H       0.40508   0.37017   0.04292 
H          H       0.13870   0.76732   0.02000 
H          H       0.99960   0.80643   0.01121 
H          H       0.76690   0.86871   0.48174 
H          H       0.80227   0.00468   0.48852 
H          H       0.28537   0.73320   0.49876 
