data_crystal
 
_cell_length_a    24.90000
_cell_length_b    26.50000
_cell_length_c    12.20000
_cell_angle_alpha 90.00000
_cell_angle_beta  142.20000
_cell_angle_gamma 90.00000
 
_symmetry_space_group_name_Hall 'P 1'
_symmetry_space_group_name_H-M  'P 1'
 
loop_
_symmetry_equiv_pos_as_xyz
 'x,y,z' 
 
loop_
_atom_site_label
_atom_site_type_symbol
_atom_site_fract_x
_atom_site_fract_y
_atom_site_fract_z
C          C       0.77019   0.97378   0.10634 
C          C       0.77019   0.02622   0.10634 
C          C       0.27019   0.47378   0.10634 
C          C       0.27019   0.52622   0.10634 
C          C       0.81856   0.94735   0.26255 
C          C       0.81856   0.05265   0.26255 
C          C       0.31856   0.44735   0.26255 
C          C       0.31856   0.55265   0.26255 
C          C       0.86897   0.97306   0.42320 
C          C       0.86897   0.02694   0.42320 
C          C       0.36897   0.47306   0.42320 
C          C       0.36897   0.52694   0.42320 
C          C       0.96783   0.97306   0.24599 
C          C       0.96783   0.02694   0.24599 
C          C       0.46783   0.47306   0.24599 
C          C       0.46783   0.52694   0.24599 
N          N       0.91840   0.94507   0.08460 
N          N       0.91840   0.05493   0.08460 
N          N       0.41840   0.44507   0.08460 
N          N       0.41840   0.55493   0.08460 
C          C       0.01824   0.94735   0.40664 
C          C       0.01824   0.05265   0.40664 
C          C       0.51824   0.44735   0.40664 
C          C       0.51824   0.55265   0.40664 
C          C       0.06661   0.97378   0.06286 
C          C       0.06661   0.02622   0.06286 
C          C       0.56661   0.47378   0.06286 
C          C       0.56661   0.52622   0.06286 
C          C       0.91840   0.89024   0.08460 
C          C       0.91840   0.10976   0.08460 
C          C       0.41840   0.39024   0.08460 
C          C       0.41840   0.60976   0.08460 
C          C       0.96674   0.86342   0.08324 
C          C       0.96674   0.13658   0.08324 
C          C       0.46674   0.36342   0.08324 
C          C       0.46674   0.63658   0.08324 
C          C       0.96683   0.81027   0.08205 
C          C       0.96683   0.18973   0.08205 
C          C       0.46683   0.31027   0.08205 
C          C       0.46683   0.68973   0.08205 
C          C       0.91840   0.78437   0.08460 
C          C       0.91840   0.21563   0.08460 
C          C       0.41840   0.28437   0.08460 
C          C       0.41840   0.71563   0.08460 
C          C       0.86997   0.81027   0.08715 
C          C       0.86997   0.18973   0.08715 
C          C       0.36997   0.31027   0.08715 
C          C       0.36997   0.68973   0.08715 
C          C       0.87006   0.86342   0.08596 
C          C       0.87006   0.13658   0.08596 
C          C       0.37006   0.36342   0.08596 
C          C       0.37006   0.63658   0.08596 
C          C       0.01692   0.78026   0.08004 
C          C       0.01692   0.21974   0.08004 
C          C       0.51692   0.28026   0.08004 
C          C       0.51692   0.71974   0.08004 
C          C       0.81988   0.78026   0.08915 
C          C       0.81988   0.21974   0.08915 
C          C       0.31988   0.28026   0.08915 
C          C       0.31988   0.71974   0.08915 
N          N       0.06504   0.80105   0.08135 
N          N       0.06504   0.19895   0.08135 
N          N       0.56504   0.30105   0.08135 
N          N       0.56504   0.69895   0.08135 
N          N       0.77176   0.80105   0.08784 
N          N       0.77176   0.19895   0.08784 
N          N       0.27176   0.30105   0.08784 
N          N       0.27176   0.69895   0.08784 
C          C       0.11661   0.77441   0.08295 
C          C       0.11661   0.22559   0.08295 
C          C       0.61661   0.27441   0.08295 
C          C       0.61661   0.72559   0.08295 
C          C       0.72019   0.77441   0.08625 
C          C       0.72019   0.22559   0.08625 
C          C       0.22019   0.27441   0.08625 
C          C       0.22019   0.72559   0.08625 
C          C       0.14046   0.72319   0.13181 
C          C       0.14046   0.27681   0.13181 
C          C       0.64046   0.22319   0.13181 
C          C       0.64046   0.77681   0.13181 
C          C       0.14591   0.80079   0.03757 
C          C       0.14591   0.19921   0.03757 
C          C       0.64591   0.30079   0.03757 
C          C       0.64591   0.69921   0.03757 
C          C       0.69089   0.80078   0.13163 
C          C       0.69089   0.19922   0.13163 
C          C       0.19089   0.30078   0.13163 
C          C       0.19089   0.69922   0.13163 
C          C       0.69634   0.72319   0.03738 
C          C       0.69634   0.27681   0.03738 
C          C       0.19634   0.22319   0.03738 
C          C       0.19634   0.77681   0.03738 
H          H       0.73056   0.95235   0.47833 
H          H       0.73056   0.04765   0.47833 
H          H       0.23056   0.45235   0.47833 
H          H       0.23056   0.54765   0.47833 
H          H       0.81777   0.90434   0.26178 
H          H       0.81777   0.09566   0.26178 
H          H       0.31777   0.40434   0.26178 
H          H       0.31777   0.59566   0.26178 
H          H       0.01985   0.90435   0.41004 
H          H       0.01985   0.09565   0.41004 
H          H       0.51985   0.40435   0.41004 
H          H       0.51985   0.59565   0.41004 
H          H       0.10624   0.95235   0.19087 
H          H       0.10624   0.04765   0.19087 
H          H       0.60624   0.45235   0.19087 
H          H       0.60624   0.54765   0.19087 
H          H       0.00645   0.88473   0.08310 
H          H       0.00645   0.11527   0.08310 
H          H       0.50645   0.38473   0.08310 
H          H       0.50645   0.61527   0.08310 
H          H       0.91773   0.74136   0.08464 
H          H       0.91773   0.25864   0.08464 
H          H       0.41773   0.24136   0.08464 
H          H       0.41773   0.75864   0.08464 
H          H       0.83035   0.88473   0.08610 
H          H       0.83035   0.11527   0.08610 
H          H       0.33035   0.38473   0.08610 
H          H       0.33035   0.61527   0.08610 
H          H       0.01180   0.73742   0.07725 
H          H       0.01180   0.26258   0.07725 
H          H       0.51180   0.23742   0.07725 
H          H       0.51180   0.76258   0.07725 
H          H       0.82266   0.73728   0.09195 
H          H       0.82266   0.26272   0.09195 
H          H       0.32266   0.23728   0.09195 
H          H       0.32266   0.76272   0.09195 
H          H       0.11890   0.70073   0.17205 
H          H       0.11890   0.29927   0.17205 
H          H       0.61890   0.20073   0.17205 
H          H       0.61890   0.79927   0.17205 
H          H       0.12900   0.84241   0.49990 
H          H       0.12900   0.15759   0.49990 
H          H       0.62900   0.34241   0.49990 
H          H       0.62900   0.65759   0.49990 
H          H       0.70780   0.84241   0.16930 
H          H       0.70780   0.15759   0.16930 
H          H       0.20780   0.34241   0.16930 
H          H       0.20780   0.65759   0.16930 
H          H       0.71790   0.70073   0.49715 
H          H       0.71790   0.29927   0.49715 
H          H       0.21790   0.20073   0.49715 
H          H       0.21790   0.79927   0.49715 
C          C       0.77019   0.97378   0.60634 
C          C       0.77019   0.02622   0.60634 
C          C       0.27019   0.47378   0.60634 
C          C       0.27019   0.52622   0.60634 
C          C       0.81856   0.94735   0.76255 
C          C       0.81856   0.05265   0.76255 
C          C       0.31856   0.44735   0.76255 
C          C       0.31856   0.55265   0.76255 
C          C       0.86897   0.97306   0.92321 
C          C       0.86897   0.02694   0.92321 
C          C       0.36897   0.47306   0.92321 
C          C       0.36897   0.52694   0.92321 
C          C       0.96783   0.97306   0.74600 
C          C       0.96783   0.02694   0.74600 
C          C       0.46783   0.47306   0.74600 
C          C       0.46783   0.52694   0.74600 
N          N       0.91840   0.94507   0.58460 
N          N       0.91840   0.05493   0.58460 
N          N       0.41840   0.44507   0.58460 
N          N       0.41840   0.55493   0.58460 
C          C       0.01824   0.94735   0.90664 
C          C       0.01824   0.05265   0.90664 
C          C       0.51824   0.44735   0.90664 
C          C       0.51824   0.55265   0.90664 
C          C       0.06661   0.97378   0.56286 
C          C       0.06661   0.02622   0.56286 
C          C       0.56661   0.47378   0.56286 
C          C       0.56661   0.52622   0.56286 
C          C       0.91840   0.89024   0.58460 
C          C       0.91840   0.10976   0.58460 
C          C       0.41840   0.39024   0.58460 
C          C       0.41840   0.60976   0.58460 
C          C       0.96674   0.86342   0.58324 
C          C       0.96674   0.13658   0.58324 
C          C       0.46674   0.36342   0.58324 
C          C       0.46674   0.63658   0.58324 
C          C       0.96683   0.81027   0.58205 
C          C       0.96683   0.18973   0.58205 
C          C       0.46683   0.31027   0.58205 
C          C       0.46683   0.68973   0.58205 
C          C       0.91840   0.78437   0.58460 
C          C       0.91840   0.21563   0.58460 
C          C       0.41840   0.28437   0.58460 
C          C       0.41840   0.71563   0.58460 
C          C       0.86997   0.81027   0.58715 
C          C       0.86997   0.18973   0.58715 
C          C       0.36997   0.31027   0.58715 
C          C       0.36997   0.68973   0.58715 
C          C       0.87006   0.86342   0.58596 
C          C       0.87006   0.13658   0.58596 
C          C       0.37006   0.36342   0.58596 
C          C       0.37006   0.63658   0.58596 
C          C       0.01692   0.78026   0.58004 
C          C       0.01692   0.21974   0.58004 
C          C       0.51692   0.28026   0.58004 
C          C       0.51692   0.71974   0.58004 
C          C       0.81988   0.78026   0.58915 
C          C       0.81988   0.21974   0.58915 
C          C       0.31988   0.28026   0.58915 
C          C       0.31988   0.71974   0.58915 
N          N       0.06504   0.80105   0.58135 
N          N       0.06504   0.19895   0.58135 
N          N       0.56504   0.30105   0.58135 
N          N       0.56504   0.69895   0.58135 
N          N       0.77176   0.80105   0.58784 
N          N       0.77176   0.19895   0.58784 
N          N       0.27176   0.30105   0.58784 
N          N       0.27176   0.69895   0.58784 
C          C       0.11661   0.77441   0.58295 
C          C       0.11661   0.22559   0.58295 
C          C       0.61661   0.27441   0.58295 
C          C       0.61661   0.72559   0.58295 
C          C       0.72019   0.77441   0.58625 
C          C       0.72019   0.22559   0.58625 
C          C       0.22019   0.27441   0.58625 
C          C       0.22019   0.72559   0.58625 
C          C       0.14046   0.72319   0.63182 
C          C       0.14046   0.27681   0.63182 
C          C       0.64046   0.22319   0.63182 
C          C       0.64046   0.77681   0.63182 
C          C       0.14591   0.80079   0.53757 
C          C       0.14591   0.19921   0.53757 
C          C       0.64591   0.30079   0.53757 
C          C       0.64591   0.69921   0.53757 
C          C       0.69089   0.80078   0.63163 
C          C       0.69089   0.19922   0.63163 
C          C       0.19089   0.30078   0.63163 
C          C       0.19089   0.69922   0.63163 
C          C       0.69634   0.72319   0.53738 
C          C       0.69634   0.27681   0.53738 
C          C       0.19634   0.22319   0.53738 
C          C       0.19634   0.77681   0.53738 
H          H       0.73056   0.95235   0.97833 
H          H       0.73056   0.04765   0.97833 
H          H       0.23056   0.45235   0.97833 
H          H       0.23056   0.54765   0.97833 
H          H       0.81777   0.90434   0.76179 
H          H       0.81777   0.09566   0.76179 
H          H       0.31777   0.40434   0.76179 
H          H       0.31777   0.59566   0.76179 
H          H       0.01985   0.90435   0.91004 
H          H       0.01985   0.09565   0.91004 
H          H       0.51985   0.40435   0.91004 
H          H       0.51985   0.59565   0.91004 
H          H       0.10624   0.95235   0.69087 
H          H       0.10624   0.04765   0.69087 
H          H       0.60624   0.45235   0.69087 
H          H       0.60624   0.54765   0.69087 
H          H       0.00645   0.88473   0.58309 
H          H       0.00645   0.11527   0.58309 
H          H       0.50645   0.38473   0.58309 
H          H       0.50645   0.61527   0.58309 
H          H       0.91773   0.74136   0.58464 
H          H       0.91773   0.25864   0.58464 
H          H       0.41773   0.24136   0.58464 
H          H       0.41773   0.75864   0.58464 
H          H       0.83035   0.88473   0.58610 
H          H       0.83035   0.11527   0.58610 
H          H       0.33035   0.38473   0.58610 
H          H       0.33035   0.61527   0.58610 
H          H       0.01180   0.73742   0.57725 
H          H       0.01180   0.26258   0.57725 
H          H       0.51180   0.23742   0.57725 
H          H       0.51180   0.76258   0.57725 
H          H       0.82266   0.73728   0.59195 
H          H       0.82266   0.26272   0.59195 
H          H       0.32266   0.23728   0.59195 
H          H       0.32266   0.76272   0.59195 
H          H       0.11890   0.70073   0.67205 
H          H       0.11890   0.29927   0.67205 
H          H       0.61890   0.20073   0.67205 
H          H       0.61890   0.79927   0.67205 
H          H       0.12900   0.84241   0.99990 
H          H       0.12900   0.15759   0.99990 
H          H       0.62900   0.34241   0.99990 
H          H       0.62900   0.65759   0.99990 
H          H       0.70780   0.84241   0.66929 
H          H       0.70780   0.15759   0.66929 
H          H       0.20780   0.34241   0.66929 
H          H       0.20780   0.65759   0.66929 
H          H       0.71790   0.70073   0.99715 
H          H       0.71790   0.29927   0.99715 
H          H       0.21790   0.20073   0.99715 
H          H       0.21790   0.79927   0.99715 
