data_crystal
 
_cell_length_a    37.70000
_cell_length_b    37.40000
_cell_length_c    11.80000
_cell_angle_alpha 90.00000
_cell_angle_beta  39.40000
_cell_angle_gamma 90.00000
 
_space_group_name_Hall 'P 1'
_space_group_name_H-M_alt  'P 1'
 
loop_
_symmetry_equiv_pos_as_xyz
 'x,y,z' 
 
loop_
_atom_site_label
_atom_site_type_symbol
_atom_site_fract_x
_atom_site_fract_y
_atom_site_fract_z
C          C       0.22049   0.01889   0.41053 
C          C       0.22049   0.98111   0.41053 
C          C       0.72049   0.51889   0.41053 
C          C       0.72049   0.48111   0.41053 
C          C       0.18602   0.03726   0.07432 
C          C       0.18602   0.96274   0.07432 
C          C       0.68602   0.53726   0.07432 
C          C       0.68602   0.46274   0.07432 
C          C       0.15298   0.01858   0.23395 
C          C       0.15298   0.98142   0.23395 
C          C       0.65298   0.51858   0.23395 
C          C       0.65298   0.48142   0.23395 
N          N       0.25494   0.03818   0.24442 
N          N       0.25494   0.96182   0.24442 
N          N       0.75494   0.53818   0.24442 
N          N       0.75494   0.46182   0.24442 
C          C       0.28940   0.01889   0.07830 
C          C       0.28940   0.98111   0.07830 
C          C       0.78940   0.51889   0.07830 
C          C       0.78940   0.48111   0.07830 
C          C       0.35691   0.01858   0.25489 
C          C       0.35691   0.98142   0.25489 
C          C       0.85691   0.51858   0.25489 
C          C       0.85691   0.48142   0.25489 
C          C       0.32387   0.03726   0.41452 
C          C       0.32387   0.96274   0.41452 
C          C       0.82387   0.53726   0.41452 
C          C       0.82387   0.46274   0.41452 
C          C       0.25494   0.07667   0.24442 
C          C       0.25494   0.92333   0.24442 
C          C       0.75494   0.57667   0.24442 
C          C       0.75494   0.42333   0.24442 
C          C       0.22213   0.09545   0.24693 
C          C       0.22213   0.90455   0.24693 
C          C       0.72213   0.59545   0.24693 
C          C       0.72213   0.40455   0.24693 
C          C       0.22221   0.13294   0.24665 
C          C       0.22221   0.86706   0.24665 
C          C       0.72221   0.63294   0.24665 
C          C       0.72221   0.36706   0.24665 
C          C       0.25494   0.15131   0.24442 
C          C       0.25494   0.84869   0.24442 
C          C       0.75494   0.65131   0.24442 
C          C       0.75494   0.34869   0.24442 
C          C       0.28768   0.13294   0.24219 
C          C       0.28768   0.86706   0.24219 
C          C       0.78768   0.63294   0.24219 
C          C       0.78768   0.36706   0.24219 
C          C       0.28775   0.09545   0.24191 
C          C       0.28775   0.90455   0.24191 
C          C       0.78775   0.59545   0.24191 
C          C       0.78775   0.40455   0.24191 
C          C       0.18915   0.15423   0.24824 
C          C       0.18915   0.84577   0.24824 
C          C       0.68915   0.65423   0.24824 
C          C       0.68915   0.34577   0.24824 
C          C       0.32073   0.15423   0.24061 
C          C       0.32073   0.84577   0.24061 
C          C       0.82073   0.65423   0.24061 
C          C       0.82073   0.34577   0.24061 
N          N       0.34399   0.14031   0.27235 
N          N       0.34399   0.85969   0.27235 
N          N       0.84399   0.64031   0.27235 
N          N       0.84399   0.35969   0.27235 
C          C       0.37290   0.16159   0.28347 
C          C       0.37290   0.83841   0.28347 
C          C       0.87290   0.66159   0.28347 
C          C       0.87290   0.33841   0.28347 
C          C       0.35742   0.19728   0.34325 
C          C       0.35742   0.80272   0.34325 
C          C       0.85742   0.69728   0.34325 
C          C       0.85742   0.30272   0.34325 
C          C       0.38877   0.21836   0.33922 
C          C       0.38877   0.78164   0.33922 
C          C       0.88877   0.71836   0.33922 
C          C       0.88877   0.28164   0.33922 
C          C       0.43571   0.20414   0.27792 
C          C       0.43571   0.79586   0.27792 
C          C       0.93571   0.70414   0.27792 
C          C       0.93571   0.29586   0.27792 
C          C       0.44914   0.16785   0.22885 
C          C       0.44914   0.83215   0.22885 
C          C       0.94914   0.66785   0.22885 
C          C       0.94914   0.33215   0.22885 
C          C       0.41764   0.14670   0.23264 
C          C       0.41764   0.85330   0.23264 
C          C       0.91764   0.64670   0.23264 
C          C       0.91764   0.35330   0.23264 
N          N       0.16590   0.14031   0.21649 
N          N       0.16590   0.85969   0.21649 
N          N       0.66590   0.64031   0.21649 
N          N       0.66590   0.35969   0.21649 
C          C       0.13699   0.16159   0.20538 
C          C       0.13699   0.83841   0.20538 
C          C       0.63699   0.66159   0.20538 
C          C       0.63699   0.33841   0.20538 
C          C       0.15247   0.19728   0.14560 
C          C       0.15247   0.80272   0.14560 
C          C       0.65247   0.69728   0.14560 
C          C       0.65247   0.30272   0.14560 
C          C       0.12112   0.21836   0.14961 
C          C       0.12112   0.78164   0.14961 
C          C       0.62112   0.71836   0.14961 
C          C       0.62112   0.28164   0.14961 
C          C       0.07418   0.20414   0.21091 
C          C       0.07418   0.79586   0.21091 
C          C       0.57418   0.70414   0.21091 
C          C       0.57418   0.29586   0.21091 
C          C       0.06075   0.16785   0.25999 
C          C       0.06075   0.83215   0.25999 
C          C       0.56075   0.66785   0.25999 
C          C       0.56075   0.33215   0.25999 
C          C       0.09225   0.14670   0.25620 
C          C       0.09225   0.85330   0.25620 
C          C       0.59225   0.64670   0.25620 
C          C       0.59225   0.35330   0.25620 
C          C       0.03875   0.22755   0.22766 
C          C       0.03875   0.77245   0.22766 
C          C       0.53875   0.72755   0.22766 
C          C       0.53875   0.27245   0.22766 
C          C       0.47113   0.22755   0.26117 
C          C       0.47113   0.77245   0.26117 
C          C       0.97113   0.72755   0.26117 
C          C       0.97113   0.27245   0.26117 
C          C       0.48497   0.26214   0.18918 
C          C       0.48497   0.73786   0.18918 
C          C       0.98497   0.76214   0.18918 
C          C       0.98497   0.23786   0.18918 
C          C       0.49139   0.21562   0.31634 
C          C       0.49139   0.78438   0.31634 
C          C       0.99139   0.71562   0.31634 
C          C       0.99139   0.28438   0.31634 
C          C       0.02492   0.26214   0.29966 
C          C       0.02492   0.73786   0.29966 
C          C       0.52492   0.76214   0.29966 
C          C       0.52492   0.23786   0.29966 
C          C       0.01850   0.21562   0.17249 
C          C       0.01850   0.78438   0.17249 
C          C       0.51850   0.71562   0.17249 
C          C       0.51850   0.28438   0.17249 
H          H       0.18418   0.06613   0.08024 
H          H       0.18418   0.93387   0.08024 
H          H       0.68418   0.56613   0.08024 
H          H       0.68418   0.43387   0.08024 
H          H       0.12695   0.03300   0.35835 
H          H       0.12695   0.96700   0.35835 
H          H       0.62695   0.53300   0.35835 
H          H       0.62695   0.46700   0.35835 
H          H       0.38293   0.03300   0.13049 
H          H       0.38293   0.96700   0.13049 
H          H       0.88293   0.53300   0.13049 
H          H       0.88293   0.46700   0.13049 
H          H       0.32571   0.06613   0.40859 
H          H       0.32571   0.93387   0.40859 
H          H       0.82571   0.56613   0.40859 
H          H       0.82571   0.43387   0.40859 
H          H       0.19658   0.08084   0.25052 
H          H       0.19658   0.91916   0.25052 
H          H       0.69658   0.58084   0.25052 
H          H       0.69658   0.41916   0.25052 
H          H       0.25494   0.18032   0.24443 
H          H       0.25494   0.81968   0.24443 
H          H       0.75494   0.68032   0.24443 
H          H       0.75494   0.31968   0.24443 
H          H       0.31330   0.08084   0.23831 
H          H       0.31330   0.91916   0.23831 
H          H       0.81330   0.58084   0.23831 
H          H       0.81330   0.41916   0.23831 
H          H       0.18531   0.18262   0.27458 
H          H       0.18531   0.81738   0.27458 
H          H       0.68531   0.68262   0.27458 
H          H       0.68531   0.31738   0.27458 
H          H       0.32457   0.18262   0.21427 
H          H       0.32457   0.81738   0.21427 
H          H       0.82457   0.68262   0.21427 
H          H       0.82457   0.31738   0.21427 
H          H       0.32105   0.20901   0.39347 
H          H       0.32105   0.79099   0.39347 
H          H       0.82105   0.70901   0.39347 
H          H       0.82105   0.29099   0.39347 
H          H       0.37638   0.24587   0.38371 
H          H       0.37638   0.75413   0.38371 
H          H       0.87638   0.74587   0.38371 
H          H       0.87638   0.25413   0.38371 
H          H       0.48503   0.15620   0.18193 
H          H       0.48503   0.84380   0.18193 
H          H       0.98503   0.65620   0.18193 
H          H       0.98503   0.34380   0.18193 
H          H       0.42928   0.11906   0.18991 
H          H       0.42928   0.88094   0.18991 
H          H       0.92928   0.61906   0.18991 
H          H       0.92928   0.38094   0.18991 
H          H       0.18884   0.20901   0.09538 
H          H       0.18884   0.79099   0.09538 
H          H       0.68884   0.70901   0.09538 
H          H       0.68884   0.29099   0.09538 
H          H       0.13351   0.24587   0.10514 
H          H       0.13351   0.75413   0.10514 
H          H       0.63351   0.74587   0.10514 
H          H       0.63351   0.25413   0.10514 
H          H       0.02486   0.15620   0.30691 
H          H       0.02486   0.84380   0.30691 
H          H       0.52486   0.65620   0.30691 
H          H       0.52486   0.34380   0.30691 
H          H       0.08061   0.11906   0.29894 
H          H       0.08061   0.88094   0.29894 
H          H       0.58061   0.61906   0.29894 
H          H       0.58061   0.38094   0.29894 
H          H       0.47049   0.27182   0.14335 
H          H       0.47049   0.72818   0.14335 
H          H       0.97049   0.77182   0.14335 
H          H       0.97049   0.22818   0.14335 
H          H       0.48065   0.18930   0.37467 
H          H       0.48065   0.81070   0.37467 
H          H       0.98065   0.68930   0.37467 
H          H       0.98065   0.31070   0.37467 
H          H       0.03940   0.27182   0.34549 
H          H       0.03940   0.72818   0.34549 
H          H       0.53940   0.77182   0.34549 
H          H       0.53940   0.22818   0.34549 
H          H       0.02924   0.18930   0.11416 
H          H       0.02924   0.81070   0.11416 
H          H       0.52924   0.68930   0.11416 
H          H       0.52924   0.31070   0.11416 
C          C       0.22049   0.01889   0.91053 
C          C       0.22049   0.98111   0.91053 
C          C       0.72049   0.51889   0.91053 
C          C       0.72049   0.48111   0.91053 
C          C       0.18602   0.03726   0.57432 
C          C       0.18602   0.96274   0.57432 
C          C       0.68602   0.53726   0.57432 
C          C       0.68602   0.46274   0.57432 
C          C       0.15298   0.01858   0.73395 
C          C       0.15298   0.98142   0.73395 
C          C       0.65298   0.51858   0.73395 
C          C       0.65298   0.48142   0.73395 
N          N       0.25494   0.03818   0.74442 
N          N       0.25494   0.96182   0.74442 
N          N       0.75494   0.53818   0.74442 
N          N       0.75494   0.46182   0.74442 
C          C       0.28940   0.01889   0.57830 
C          C       0.28940   0.98111   0.57830 
C          C       0.78940   0.51889   0.57830 
C          C       0.78940   0.48111   0.57830 
C          C       0.35691   0.01858   0.75489 
C          C       0.35691   0.98142   0.75489 
C          C       0.85691   0.51858   0.75489 
C          C       0.85691   0.48142   0.75489 
C          C       0.32387   0.03726   0.91452 
C          C       0.32387   0.96274   0.91452 
C          C       0.82387   0.53726   0.91452 
C          C       0.82387   0.46274   0.91452 
C          C       0.25494   0.07667   0.74442 
C          C       0.25494   0.92333   0.74442 
C          C       0.75494   0.57667   0.74442 
C          C       0.75494   0.42333   0.74442 
C          C       0.22213   0.09545   0.74693 
C          C       0.22213   0.90455   0.74693 
C          C       0.72213   0.59545   0.74693 
C          C       0.72213   0.40455   0.74693 
C          C       0.22221   0.13294   0.74665 
C          C       0.22221   0.86706   0.74665 
C          C       0.72221   0.63294   0.74665 
C          C       0.72221   0.36706   0.74665 
C          C       0.25494   0.15131   0.74442 
C          C       0.25494   0.84869   0.74442 
C          C       0.75494   0.65131   0.74442 
C          C       0.75494   0.34869   0.74442 
C          C       0.28768   0.13294   0.74220 
C          C       0.28768   0.86706   0.74220 
C          C       0.78768   0.63294   0.74220 
C          C       0.78768   0.36706   0.74220 
C          C       0.28775   0.09545   0.74191 
C          C       0.28775   0.90455   0.74191 
C          C       0.78775   0.59545   0.74191 
C          C       0.78775   0.40455   0.74191 
C          C       0.18915   0.15423   0.74824 
C          C       0.18915   0.84577   0.74824 
C          C       0.68915   0.65423   0.74824 
C          C       0.68915   0.34577   0.74824 
C          C       0.32073   0.15423   0.74060 
C          C       0.32073   0.84577   0.74060 
C          C       0.82073   0.65423   0.74060 
C          C       0.82073   0.34577   0.74060 
N          N       0.34399   0.14031   0.77235 
N          N       0.34399   0.85969   0.77235 
N          N       0.84399   0.64031   0.77235 
N          N       0.84399   0.35969   0.77235 
C          C       0.37290   0.16159   0.78346 
C          C       0.37290   0.83841   0.78346 
C          C       0.87290   0.66159   0.78346 
C          C       0.87290   0.33841   0.78346 
C          C       0.35742   0.19728   0.84325 
C          C       0.35742   0.80272   0.84325 
C          C       0.85742   0.69728   0.84325 
C          C       0.85742   0.30272   0.84325 
C          C       0.38877   0.21836   0.83922 
C          C       0.38877   0.78164   0.83922 
C          C       0.88877   0.71836   0.83922 
C          C       0.88877   0.28164   0.83922 
C          C       0.43571   0.20414   0.77792 
C          C       0.43571   0.79586   0.77792 
C          C       0.93571   0.70414   0.77792 
C          C       0.93571   0.29586   0.77792 
C          C       0.44914   0.16785   0.72885 
C          C       0.44914   0.83215   0.72885 
C          C       0.94914   0.66785   0.72885 
C          C       0.94914   0.33215   0.72885 
C          C       0.41764   0.14670   0.73264 
C          C       0.41764   0.85330   0.73264 
C          C       0.91764   0.64670   0.73264 
C          C       0.91764   0.35330   0.73264 
N          N       0.16590   0.14031   0.71649 
N          N       0.16590   0.85969   0.71649 
N          N       0.66590   0.64031   0.71649 
N          N       0.66590   0.35969   0.71649 
C          C       0.13699   0.16159   0.70538 
C          C       0.13699   0.83841   0.70538 
C          C       0.63699   0.66159   0.70538 
C          C       0.63699   0.33841   0.70538 
C          C       0.15247   0.19728   0.64560 
C          C       0.15247   0.80272   0.64560 
C          C       0.65247   0.69728   0.64560 
C          C       0.65247   0.30272   0.64560 
C          C       0.12112   0.21836   0.64961 
C          C       0.12112   0.78164   0.64961 
C          C       0.62112   0.71836   0.64961 
C          C       0.62112   0.28164   0.64961 
C          C       0.07418   0.20414   0.71092 
C          C       0.07418   0.79586   0.71092 
C          C       0.57418   0.70414   0.71092 
C          C       0.57418   0.29586   0.71092 
C          C       0.06075   0.16785   0.75999 
C          C       0.06075   0.83215   0.75999 
C          C       0.56075   0.66785   0.75999 
C          C       0.56075   0.33215   0.75999 
C          C       0.09225   0.14670   0.75620 
C          C       0.09225   0.85330   0.75620 
C          C       0.59225   0.64670   0.75620 
C          C       0.59225   0.35330   0.75620 
C          C       0.03875   0.22755   0.72766 
C          C       0.03875   0.77245   0.72766 
C          C       0.53875   0.72755   0.72766 
C          C       0.53875   0.27245   0.72766 
C          C       0.47113   0.22755   0.76117 
C          C       0.47113   0.77245   0.76117 
C          C       0.97113   0.72755   0.76117 
C          C       0.97113   0.27245   0.76117 
C          C       0.48497   0.26214   0.68917 
C          C       0.48497   0.73786   0.68917 
C          C       0.98497   0.76214   0.68917 
C          C       0.98497   0.23786   0.68917 
C          C       0.49139   0.21562   0.81634 
C          C       0.49139   0.78438   0.81634 
C          C       0.99139   0.71562   0.81634 
C          C       0.99139   0.28438   0.81634 
C          C       0.02492   0.26214   0.79966 
C          C       0.02492   0.73786   0.79966 
C          C       0.52492   0.76214   0.79966 
C          C       0.52492   0.23786   0.79966 
C          C       0.01850   0.21562   0.67249 
C          C       0.01850   0.78438   0.67249 
C          C       0.51850   0.71562   0.67249 
C          C       0.51850   0.28438   0.67249 
H          H       0.18418   0.06613   0.58024 
H          H       0.18418   0.93387   0.58024 
H          H       0.68418   0.56613   0.58024 
H          H       0.68418   0.43387   0.58024 
H          H       0.12695   0.03300   0.85835 
H          H       0.12695   0.96700   0.85835 
H          H       0.62695   0.53300   0.85835 
H          H       0.62695   0.46700   0.85835 
H          H       0.38293   0.03300   0.63049 
H          H       0.38293   0.96700   0.63049 
H          H       0.88293   0.53300   0.63049 
H          H       0.88293   0.46700   0.63049 
H          H       0.32571   0.06613   0.90860 
H          H       0.32571   0.93387   0.90860 
H          H       0.82571   0.56613   0.90860 
H          H       0.82571   0.43387   0.90860 
H          H       0.19658   0.08084   0.75052 
H          H       0.19658   0.91916   0.75052 
H          H       0.69658   0.58084   0.75052 
H          H       0.69658   0.41916   0.75052 
H          H       0.25494   0.18032   0.74443 
H          H       0.25494   0.81968   0.74443 
H          H       0.75494   0.68032   0.74443 
H          H       0.75494   0.31968   0.74443 
H          H       0.31330   0.08084   0.73832 
H          H       0.31330   0.91916   0.73832 
H          H       0.81330   0.58084   0.73832 
H          H       0.81330   0.41916   0.73832 
H          H       0.18531   0.18262   0.77458 
H          H       0.18531   0.81738   0.77458 
H          H       0.68531   0.68262   0.77458 
H          H       0.68531   0.31738   0.77458 
H          H       0.32457   0.18262   0.71427 
H          H       0.32457   0.81738   0.71427 
H          H       0.82457   0.68262   0.71427 
H          H       0.82457   0.31738   0.71427 
H          H       0.32105   0.20901   0.89346 
H          H       0.32105   0.79099   0.89346 
H          H       0.82105   0.70901   0.89346 
H          H       0.82105   0.29099   0.89346 
H          H       0.37638   0.24587   0.88371 
H          H       0.37638   0.75413   0.88371 
H          H       0.87638   0.74587   0.88371 
H          H       0.87638   0.25413   0.88371 
H          H       0.48503   0.15620   0.68193 
H          H       0.48503   0.84380   0.68193 
H          H       0.98503   0.65620   0.68193 
H          H       0.98503   0.34380   0.68193 
H          H       0.42928   0.11906   0.68991 
H          H       0.42928   0.88094   0.68991 
H          H       0.92928   0.61906   0.68991 
H          H       0.92928   0.38094   0.68991 
H          H       0.18884   0.20901   0.59538 
H          H       0.18884   0.79099   0.59538 
H          H       0.68884   0.70901   0.59538 
H          H       0.68884   0.29099   0.59538 
H          H       0.13351   0.24587   0.60513 
H          H       0.13351   0.75413   0.60513 
H          H       0.63351   0.74587   0.60513 
H          H       0.63351   0.25413   0.60513 
H          H       0.02486   0.15620   0.80692 
H          H       0.02486   0.84380   0.80692 
H          H       0.52486   0.65620   0.80692 
H          H       0.52486   0.34380   0.80692 
H          H       0.08061   0.11906   0.79893 
H          H       0.08061   0.88094   0.79893 
H          H       0.58061   0.61906   0.79893 
H          H       0.58061   0.38094   0.79893 
H          H       0.47049   0.27182   0.64335 
H          H       0.47049   0.72818   0.64335 
H          H       0.97049   0.77182   0.64335 
H          H       0.97049   0.22818   0.64335 
H          H       0.48065   0.18930   0.87467 
H          H       0.48065   0.81070   0.87467 
H          H       0.98065   0.68930   0.87467 
H          H       0.98065   0.31070   0.87467 
H          H       0.03940   0.27182   0.84549 
H          H       0.03940   0.72818   0.84549 
H          H       0.53940   0.77182   0.84549 
H          H       0.53940   0.22818   0.84549 
H          H       0.02924   0.18930   0.61416 
H          H       0.02924   0.81070   0.61416 
H          H       0.52924   0.68930   0.61416 
H          H       0.52924   0.31070   0.61416 
