data_crystal
 
_cell_length_a    30.50000
_cell_length_b    32.60000
_cell_length_c    11.60000
_cell_angle_alpha 90.00000
_cell_angle_beta  138.90000
_cell_angle_gamma 90.00000
 
_space_group_name_Hall 'P 1'
_space_group_name_H-M_alt  'P 1'
 
loop_
_symmetry_equiv_pos_as_xyz
 'x,y,z' 
 
loop_
_atom_site_label
_atom_site_type_symbol
_atom_site_fract_x
_atom_site_fract_y
_atom_site_fract_z
C          C       0.30447   0.02161   0.43492 
C          C       0.30447   0.97839   0.43492 
C          C       0.80447   0.52161   0.43492 
C          C       0.80447   0.47839   0.43492 
C          C       0.34270   0.04274   0.09296 
C          C       0.34270   0.95726   0.09296 
C          C       0.84270   0.54274   0.09296 
C          C       0.84270   0.45726   0.09296 
C          C       0.38041   0.02131   0.24761 
C          C       0.38041   0.97869   0.24761 
C          C       0.88041   0.52131   0.24761 
C          C       0.88041   0.47869   0.24761 
N          N       0.26510   0.04354   0.27366 
N          N       0.26510   0.95646   0.27366 
N          N       0.76510   0.54354   0.27366 
N          N       0.76510   0.45646   0.27366 
C          C       0.22515   0.02160   0.11207 
C          C       0.22515   0.97840   0.11207 
C          C       0.72515   0.52160   0.11207 
C          C       0.72515   0.47840   0.11207 
C          C       0.14574   0.02129   0.29742 
C          C       0.14574   0.97871   0.29742 
C          C       0.64574   0.52129   0.29742 
C          C       0.64574   0.47871   0.29742 
C          C       0.18544   0.04271   0.45309 
C          C       0.18544   0.95729   0.45309 
C          C       0.68544   0.54271   0.45309 
C          C       0.68544   0.45729   0.45309 
C          C       0.26332   0.08744   0.27210 
C          C       0.26332   0.91256   0.27210 
C          C       0.76332   0.58744   0.27210 
C          C       0.76332   0.41256   0.27210 
C          C       0.21253   0.10758   0.23053 
C          C       0.21253   0.89242   0.23053 
C          C       0.71253   0.60758   0.23053 
C          C       0.71253   0.39242   0.23053 
C          C       0.20926   0.15042   0.22537 
C          C       0.20926   0.84958   0.22537 
C          C       0.70926   0.65042   0.22537 
C          C       0.70926   0.34958   0.22537 
C          C       0.25632   0.17334   0.25492 
C          C       0.25632   0.82666   0.25492 
C          C       0.75632   0.67334   0.25492 
C          C       0.75632   0.32666   0.25492 
C          C       0.30728   0.15269   0.29524 
C          C       0.30728   0.84731   0.29524 
C          C       0.80728   0.65269   0.29524 
C          C       0.80728   0.34731   0.29524 
C          C       0.31117   0.10993   0.30728 
C          C       0.31117   0.89007   0.30728 
C          C       0.81117   0.60993   0.30728 
C          C       0.81117   0.39007   0.30728 
C          C       0.15677   0.16888   0.19329 
C          C       0.15677   0.83112   0.19329 
C          C       0.65677   0.66888   0.19329 
C          C       0.65677   0.33112   0.19329 
C          C       0.35719   0.17370   0.32337 
C          C       0.35719   0.82630   0.32337 
C          C       0.85719   0.67370   0.32337 
C          C       0.85719   0.32630   0.32337 
N          N       0.33971   0.19898   0.20861 
N          N       0.33971   0.80102   0.20861 
N          N       0.83971   0.69898   0.20861 
N          N       0.83971   0.30102   0.20861 
C          C       0.38473   0.21148   0.20799 
C          C       0.38473   0.78852   0.20799 
C          C       0.88473   0.71148   0.20799 
C          C       0.88473   0.28852   0.20799 
C          C       0.37786   0.25028   0.14516 
C          C       0.37786   0.74972   0.14516 
C          C       0.87786   0.75028   0.14516 
C          C       0.87786   0.24972   0.14516 
C          C       0.42169   0.26304   0.14522 
C          C       0.42169   0.73696   0.14522 
C          C       0.92169   0.76304   0.14522 
C          C       0.92169   0.23696   0.14522 
C          C       0.47282   0.23691   0.20668 
C          C       0.47282   0.76309   0.20668 
C          C       0.97282   0.73691   0.20668 
C          C       0.97282   0.26309   0.20668 
C          C       0.47774   0.19736   0.26277 
C          C       0.47774   0.80264   0.26277 
C          C       0.97774   0.69736   0.26277 
C          C       0.97774   0.30264   0.26277 
C          C       0.43374   0.18459   0.26150 
C          C       0.43374   0.81541   0.26150 
C          C       0.93374   0.68459   0.26150 
C          C       0.93374   0.31541   0.26150 
N          N       0.16013   0.20613   0.23854 
N          N       0.16013   0.79387   0.23854 
N          N       0.66013   0.70613   0.23854 
N          N       0.66013   0.29387   0.23854 
C          C       0.11429   0.22066   0.23391 
C          C       0.11429   0.77934   0.23391 
C          C       0.61429   0.72066   0.23391 
C          C       0.61429   0.27934   0.23391 
C          C       0.09214   0.19467   0.27877 
C          C       0.09214   0.80533   0.27877 
C          C       0.59214   0.69467   0.27877 
C          C       0.59214   0.30533   0.27877 
C          C       0.04617   0.20851   0.26900 
C          C       0.04617   0.79149   0.26900 
C          C       0.54617   0.70851   0.26900 
C          C       0.54617   0.29149   0.26900 
C          C       0.02181   0.24879   0.21640 
C          C       0.02181   0.75121   0.21640 
C          C       0.52181   0.74879   0.21640 
C          C       0.52181   0.25121   0.21640 
C          C       0.04594   0.27526   0.17798 
C          C       0.04594   0.72474   0.17798 
C          C       0.54594   0.77526   0.17798 
C          C       0.54594   0.22474   0.17798 
C          C       0.09207   0.26128   0.18751 
C          C       0.09207   0.73872   0.18751 
C          C       0.59207   0.76128   0.18751 
C          C       0.59207   0.23872   0.18751 
H          H       0.34378   0.07587   0.09820 
H          H       0.34378   0.92413   0.09820 
H          H       0.84378   0.57587   0.09820 
H          H       0.84378   0.42413   0.09820 
H          H       0.40992   0.03776   0.36814 
H          H       0.40992   0.96224   0.36814 
H          H       0.90992   0.53776   0.36814 
H          H       0.90992   0.46224   0.36814 
H          H       0.11445   0.03769   0.17592 
H          H       0.11445   0.96231   0.17592 
H          H       0.61445   0.53769   0.17592 
H          H       0.61445   0.46231   0.17592 
H          H       0.18429   0.07584   0.44755 
H          H       0.18429   0.92416   0.44755 
H          H       0.68429   0.57584   0.44755 
H          H       0.68429   0.42416   0.44755 
H          H       0.17596   0.08957   0.20436 
H          H       0.17596   0.91043   0.20436 
H          H       0.67596   0.58957   0.20436 
H          H       0.67596   0.41043   0.20436 
H          H       0.25382   0.20650   0.24843 
H          H       0.25382   0.79350   0.24843 
H          H       0.75382   0.70650   0.24843 
H          H       0.75382   0.29350   0.24843 
H          H       0.35031   0.09389   0.33877 
H          H       0.35031   0.90611   0.33877 
H          H       0.85031   0.59389   0.33877 
H          H       0.85031   0.40611   0.33877 
H          H       0.11668   0.14892   0.14255 
H          H       0.11668   0.85108   0.14255 
H          H       0.61668   0.64892   0.14255 
H          H       0.61668   0.35108   0.14255 
H          H       0.40774   0.16202   0.42648 
H          H       0.40774   0.83798   0.42648 
H          H       0.90774   0.66202   0.42648 
H          H       0.90774   0.33798   0.42648 
H          H       0.33912   0.27085   0.09850 
H          H       0.33912   0.72915   0.09850 
H          H       0.83912   0.77085   0.09850 
H          H       0.83912   0.22915   0.09850 
H          H       0.41552   0.29336   0.09691 
H          H       0.41552   0.70664   0.09691 
H          H       0.91552   0.79336   0.09691 
H          H       0.91552   0.20664   0.09691 
H          H       0.51633   0.17644   0.31058 
H          H       0.51633   0.82356   0.31058 
H          H       0.01633   0.67644   0.31058 
H          H       0.01633   0.32356   0.31058 
H          H       0.43816   0.15359   0.30222 
H          H       0.43816   0.84641   0.30222 
H          H       0.93816   0.65359   0.30222 
H          H       0.93816   0.34641   0.30222 
H          H       0.11092   0.16367   0.32334 
H          H       0.11092   0.83633   0.32334 
H          H       0.61092   0.66367   0.32334 
H          H       0.61092   0.33633   0.32334 
H          H       0.03056   0.18782   0.30565 
H          H       0.03056   0.81218   0.30565 
H          H       0.53056   0.68782   0.30565 
H          H       0.53056   0.31218   0.30565 
H          H       0.02841   0.30657   0.13790 
H          H       0.02841   0.69343   0.13790 
H          H       0.52841   0.80657   0.13790 
H          H       0.52841   0.19343   0.13790 
H          H       0.10938   0.28183   0.15507 
H          H       0.10938   0.71817   0.15507 
H          H       0.60938   0.78183   0.15507 
H          H       0.60938   0.21817   0.15507 
C          C       0.30447   0.02161   0.93492 
C          C       0.30447   0.97839   0.93492 
C          C       0.80447   0.52161   0.93492 
C          C       0.80447   0.47839   0.93492 
C          C       0.34270   0.04274   0.59296 
C          C       0.34270   0.95726   0.59296 
C          C       0.84270   0.54274   0.59296 
C          C       0.84270   0.45726   0.59296 
C          C       0.38041   0.02131   0.74761 
C          C       0.38041   0.97869   0.74761 
C          C       0.88041   0.52131   0.74761 
C          C       0.88041   0.47869   0.74761 
N          N       0.26510   0.04354   0.77366 
N          N       0.26510   0.95646   0.77366 
N          N       0.76510   0.54354   0.77366 
N          N       0.76510   0.45646   0.77366 
C          C       0.22515   0.02160   0.61207 
C          C       0.22515   0.97840   0.61207 
C          C       0.72515   0.52160   0.61207 
C          C       0.72515   0.47840   0.61207 
C          C       0.14574   0.02129   0.79742 
C          C       0.14574   0.97871   0.79742 
C          C       0.64574   0.52129   0.79742 
C          C       0.64574   0.47871   0.79742 
C          C       0.18544   0.04271   0.95309 
C          C       0.18544   0.95729   0.95309 
C          C       0.68544   0.54271   0.95309 
C          C       0.68544   0.45729   0.95309 
C          C       0.26332   0.08744   0.77210 
C          C       0.26332   0.91256   0.77210 
C          C       0.76332   0.58744   0.77210 
C          C       0.76332   0.41256   0.77210 
C          C       0.21253   0.10758   0.73053 
C          C       0.21253   0.89242   0.73053 
C          C       0.71253   0.60758   0.73053 
C          C       0.71253   0.39242   0.73053 
C          C       0.20926   0.15042   0.72537 
C          C       0.20926   0.84958   0.72537 
C          C       0.70926   0.65042   0.72537 
C          C       0.70926   0.34958   0.72537 
C          C       0.25632   0.17334   0.75492 
C          C       0.25632   0.82666   0.75492 
C          C       0.75632   0.67334   0.75492 
C          C       0.75632   0.32666   0.75492 
C          C       0.30728   0.15269   0.79524 
C          C       0.30728   0.84731   0.79524 
C          C       0.80728   0.65269   0.79524 
C          C       0.80728   0.34731   0.79524 
C          C       0.31117   0.10993   0.80729 
C          C       0.31117   0.89007   0.80729 
C          C       0.81117   0.60993   0.80729 
C          C       0.81117   0.39007   0.80729 
C          C       0.15677   0.16888   0.69329 
C          C       0.15677   0.83112   0.69329 
C          C       0.65677   0.66888   0.69329 
C          C       0.65677   0.33112   0.69329 
C          C       0.35719   0.17370   0.82337 
C          C       0.35719   0.82630   0.82337 
C          C       0.85719   0.67370   0.82337 
C          C       0.85719   0.32630   0.82337 
N          N       0.33971   0.19898   0.70861 
N          N       0.33971   0.80102   0.70861 
N          N       0.83971   0.69898   0.70861 
N          N       0.83971   0.30102   0.70861 
C          C       0.38473   0.21148   0.70798 
C          C       0.38473   0.78852   0.70798 
C          C       0.88473   0.71148   0.70798 
C          C       0.88473   0.28852   0.70798 
C          C       0.37786   0.25028   0.64516 
C          C       0.37786   0.74972   0.64516 
C          C       0.87786   0.75028   0.64516 
C          C       0.87786   0.24972   0.64516 
C          C       0.42169   0.26304   0.64523 
C          C       0.42169   0.73696   0.64523 
C          C       0.92169   0.76304   0.64523 
C          C       0.92169   0.23696   0.64523 
C          C       0.47282   0.23691   0.70668 
C          C       0.47282   0.76309   0.70668 
C          C       0.97282   0.73691   0.70668 
C          C       0.97282   0.26309   0.70668 
C          C       0.47774   0.19736   0.76276 
C          C       0.47774   0.80264   0.76276 
C          C       0.97774   0.69736   0.76276 
C          C       0.97774   0.30264   0.76276 
C          C       0.43374   0.18459   0.76150 
C          C       0.43374   0.81541   0.76150 
C          C       0.93374   0.68459   0.76150 
C          C       0.93374   0.31541   0.76150 
N          N       0.16013   0.20613   0.73854 
N          N       0.16013   0.79387   0.73854 
N          N       0.66013   0.70613   0.73854 
N          N       0.66013   0.29387   0.73854 
C          C       0.11429   0.22066   0.73391 
C          C       0.11429   0.77934   0.73391 
C          C       0.61429   0.72066   0.73391 
C          C       0.61429   0.27934   0.73391 
C          C       0.09214   0.19467   0.77877 
C          C       0.09214   0.80533   0.77877 
C          C       0.59214   0.69467   0.77877 
C          C       0.59214   0.30533   0.77877 
C          C       0.04617   0.20851   0.76900 
C          C       0.04617   0.79149   0.76900 
C          C       0.54617   0.70851   0.76900 
C          C       0.54617   0.29149   0.76900 
C          C       0.02181   0.24879   0.71639 
C          C       0.02181   0.75121   0.71639 
C          C       0.52181   0.74879   0.71639 
C          C       0.52181   0.25121   0.71639 
C          C       0.04594   0.27526   0.67798 
C          C       0.04594   0.72474   0.67798 
C          C       0.54594   0.77526   0.67798 
C          C       0.54594   0.22474   0.67798 
C          C       0.09207   0.26128   0.68751 
C          C       0.09207   0.73872   0.68751 
C          C       0.59207   0.76128   0.68751 
C          C       0.59207   0.23872   0.68751 
H          H       0.34378   0.07587   0.59820 
H          H       0.34378   0.92413   0.59820 
H          H       0.84378   0.57587   0.59820 
H          H       0.84378   0.42413   0.59820 
H          H       0.40992   0.03776   0.86814 
H          H       0.40992   0.96224   0.86814 
H          H       0.90992   0.53776   0.86814 
H          H       0.90992   0.46224   0.86814 
H          H       0.11445   0.03769   0.67592 
H          H       0.11445   0.96231   0.67592 
H          H       0.61445   0.53769   0.67592 
H          H       0.61445   0.46231   0.67592 
H          H       0.18429   0.07584   0.94755 
H          H       0.18429   0.92416   0.94755 
H          H       0.68429   0.57584   0.94755 
H          H       0.68429   0.42416   0.94755 
H          H       0.17596   0.08957   0.70436 
H          H       0.17596   0.91043   0.70436 
H          H       0.67596   0.58957   0.70436 
H          H       0.67596   0.41043   0.70436 
H          H       0.25382   0.20650   0.74843 
H          H       0.25382   0.79350   0.74843 
H          H       0.75382   0.70650   0.74843 
H          H       0.75382   0.29350   0.74843 
H          H       0.35031   0.09389   0.83877 
H          H       0.35031   0.90611   0.83877 
H          H       0.85031   0.59389   0.83877 
H          H       0.85031   0.40611   0.83877 
H          H       0.11668   0.14892   0.64255 
H          H       0.11668   0.85108   0.64255 
H          H       0.61668   0.64892   0.64255 
H          H       0.61668   0.35108   0.64255 
H          H       0.40774   0.16202   0.92648 
H          H       0.40774   0.83798   0.92648 
H          H       0.90774   0.66202   0.92648 
H          H       0.90774   0.33798   0.92648 
H          H       0.33912   0.27085   0.59850 
H          H       0.33912   0.72915   0.59850 
H          H       0.83912   0.77085   0.59850 
H          H       0.83912   0.22915   0.59850 
H          H       0.41552   0.29336   0.59691 
H          H       0.41552   0.70664   0.59691 
H          H       0.91552   0.79336   0.59691 
H          H       0.91552   0.20664   0.59691 
H          H       0.51633   0.17644   0.81058 
H          H       0.51633   0.82356   0.81058 
H          H       0.01633   0.67644   0.81058 
H          H       0.01633   0.32356   0.81058 
H          H       0.43816   0.15359   0.80222 
H          H       0.43816   0.84641   0.80222 
H          H       0.93816   0.65359   0.80222 
H          H       0.93816   0.34641   0.80222 
H          H       0.11092   0.16367   0.82334 
H          H       0.11092   0.83633   0.82334 
H          H       0.61092   0.66367   0.82334 
H          H       0.61092   0.33633   0.82334 
H          H       0.03056   0.18782   0.80565 
H          H       0.03056   0.81218   0.80565 
H          H       0.53056   0.68782   0.80565 
H          H       0.53056   0.31218   0.80565 
H          H       0.02841   0.30657   0.63791 
H          H       0.02841   0.69343   0.63791 
H          H       0.52841   0.80657   0.63791 
H          H       0.52841   0.19343   0.63791 
H          H       0.10938   0.28183   0.65507 
H          H       0.10938   0.71817   0.65507 
H          H       0.60938   0.78183   0.65507 
H          H       0.60938   0.21817   0.65507 
