data_crystal
 
_cell_length_a    34.30000
_cell_length_b    35.60000
_cell_length_c    11.40000
_cell_angle_alpha 90.00000
_cell_angle_beta  42.60000
_cell_angle_gamma 90.00000
 
_space_group_name_Hall 'P 1'
_space_group_name_H-M_alt  'P 1'
 
loop_
_symmetry_equiv_pos_as_xyz
 'x,y,z' 
 
loop_
_atom_site_label
_atom_site_type_symbol
_atom_site_fract_x
_atom_site_fract_y
_atom_site_fract_z
C          C       0.08271   0.98011   0.44275 
C          C       0.08271   0.01989   0.44275 
C          C       0.58271   0.48011   0.44275 
C          C       0.58271   0.51989   0.44275 
C          C       0.11982   0.96085   0.28232 
C          C       0.11982   0.03915   0.28232 
C          C       0.61982   0.46085   0.28232 
C          C       0.61982   0.53915   0.28232 
C          C       0.15540   0.98047   0.12567 
C          C       0.15540   0.01953   0.12567 
C          C       0.65540   0.48047   0.12567 
C          C       0.65540   0.51953   0.12567 
N          N       0.04533   0.95973   0.10559 
N          N       0.04533   0.04027   0.10559 
N          N       0.54533   0.45973   0.10559 
N          N       0.54533   0.54027   0.10559 
C          C       0.00796   0.98011   0.26843 
C          C       0.00796   0.01989   0.26843 
C          C       0.50796   0.48011   0.26843 
C          C       0.50796   0.51989   0.26843 
C          C       0.93526   0.98047   0.08550 
C          C       0.93526   0.01953   0.08550 
C          C       0.43526   0.48047   0.08550 
C          C       0.43526   0.51953   0.08550 
C          C       0.97085   0.96085   0.42885 
C          C       0.97085   0.03915   0.42885 
C          C       0.47085   0.46085   0.42885 
C          C       0.47085   0.53915   0.42885 
C          C       0.04533   0.91916   0.10559 
C          C       0.04533   0.08084   0.10559 
C          C       0.54533   0.41916   0.10559 
C          C       0.54533   0.58084   0.10559 
C          C       0.00946   0.89933   0.10750 
C          C       0.00946   0.10067   0.10750 
C          C       0.50946   0.39933   0.10750 
C          C       0.50946   0.60067   0.10750 
C          C       0.00948   0.85987   0.10715 
C          C       0.00948   0.14013   0.10715 
C          C       0.50948   0.35987   0.10715 
C          C       0.50948   0.64013   0.10715 
C          C       0.04533   0.84058   0.10559 
C          C       0.04533   0.15942   0.10559 
C          C       0.54533   0.34058   0.10559 
C          C       0.54533   0.65942   0.10559 
C          C       0.08119   0.85987   0.10403 
C          C       0.08119   0.14013   0.10403 
C          C       0.58119   0.35987   0.10403 
C          C       0.58119   0.64013   0.10403 
C          C       0.08121   0.89933   0.10368 
C          C       0.08121   0.10067   0.10368 
C          C       0.58121   0.39933   0.10368 
C          C       0.58121   0.60067   0.10368 
C          C       0.97258   0.83743   0.11052 
C          C       0.97258   0.16257   0.11052 
C          C       0.47258   0.33743   0.11052 
C          C       0.47258   0.66257   0.11052 
C          C       0.11809   0.83743   0.10065 
C          C       0.11809   0.16257   0.10065 
C          C       0.61809   0.33743   0.10065 
C          C       0.61809   0.66257   0.10065 
N          N       0.14336   0.85175   0.13619 
N          N       0.14336   0.14825   0.13619 
N          N       0.64336   0.35175   0.13619 
N          N       0.64336   0.64825   0.13619 
C          C       0.17726   0.83019   0.14269 
C          C       0.17726   0.16981   0.14269 
C          C       0.67726   0.33019   0.14269 
C          C       0.67726   0.66981   0.14269 
C          C       0.94731   0.85175   0.07499 
C          C       0.94731   0.14825   0.07499 
C          C       0.44731   0.35175   0.07499 
C          C       0.44731   0.64825   0.07499 
C          C       0.91340   0.83019   0.06849 
C          C       0.91340   0.16981   0.06849 
C          C       0.41340   0.33019   0.06849 
C          C       0.41340   0.66981   0.06849 
C          C       0.21814   0.84864   0.12137 
C          C       0.21814   0.15136   0.12137 
C          C       0.71814   0.34864   0.12137 
C          C       0.71814   0.65136   0.12137 
C          C       0.25353   0.82827   0.11937 
C          C       0.25353   0.17173   0.11937 
C          C       0.75353   0.32827   0.11937 
C          C       0.75353   0.67173   0.11937 
C          C       0.24870   0.78900   0.13844 
C          C       0.24870   0.21100   0.13844 
C          C       0.74870   0.28900   0.13844 
C          C       0.74870   0.71100   0.13844 
N          N       0.20543   0.77078   0.16977 
N          N       0.20543   0.22922   0.16977 
N          N       0.70543   0.27078   0.16977 
N          N       0.70543   0.72922   0.16977 
C          C       0.16995   0.79113   0.17278 
C          C       0.16995   0.20887   0.17278 
C          C       0.66995   0.29113   0.17278 
C          C       0.66995   0.70887   0.17278 
C          C       0.87253   0.84864   0.08982 
C          C       0.87253   0.15136   0.08982 
C          C       0.37253   0.34864   0.08982 
C          C       0.37253   0.65136   0.08982 
C          C       0.83713   0.82827   0.09180 
C          C       0.83713   0.17173   0.09180 
C          C       0.33713   0.32827   0.09180 
C          C       0.33713   0.67173   0.09180 
C          C       0.84197   0.78900   0.07274 
C          C       0.84197   0.21100   0.07274 
C          C       0.34197   0.28900   0.07274 
C          C       0.34197   0.71100   0.07274 
C          C       0.88523   0.77078   0.04140 
C          C       0.88523   0.22922   0.04140 
C          C       0.38523   0.27078   0.04140 
C          C       0.38523   0.72922   0.04140 
C          C       0.92072   0.79113   0.03839 
C          C       0.92072   0.20887   0.03839 
C          C       0.42072   0.29113   0.03839 
C          C       0.42072   0.70887   0.03839 
C          C       0.28833   0.76816   0.12917 
C          C       0.28833   0.23184   0.12917 
C          C       0.78833   0.26816   0.12917 
C          C       0.78833   0.73184   0.12917 
C          C       0.80234   0.76816   0.08200 
C          C       0.80234   0.23184   0.08200 
C          C       0.30234   0.26816   0.08200 
C          C       0.30234   0.73184   0.08200 
H          H       0.12165   0.93051   0.27697 
H          H       0.12165   0.06949   0.27697 
H          H       0.62165   0.43051   0.27697 
H          H       0.62165   0.56949   0.27697 
H          H       0.18335   0.96531   0.00376 
H          H       0.18335   0.03469   0.00376 
H          H       0.68335   0.46531   0.00376 
H          H       0.68335   0.53469   0.00376 
H          H       0.90731   0.96531   0.20742 
H          H       0.90731   0.03469   0.20742 
H          H       0.40731   0.46531   0.20742 
H          H       0.40731   0.53469   0.20742 
H          H       0.96902   0.93051   0.43421 
H          H       0.96902   0.06949   0.43421 
H          H       0.46902   0.43051   0.43421 
H          H       0.46902   0.56949   0.43421 
H          H       0.98132   0.91467   0.11170 
H          H       0.98132   0.08533   0.11170 
H          H       0.48132   0.41467   0.11170 
H          H       0.48132   0.58533   0.11170 
H          H       0.04533   0.81011   0.10559 
H          H       0.04533   0.18989   0.10559 
H          H       0.54533   0.31011   0.10559 
H          H       0.54533   0.68989   0.10559 
H          H       0.10934   0.91467   0.09947 
H          H       0.10934   0.08533   0.09947 
H          H       0.60934   0.41467   0.09947 
H          H       0.60934   0.58533   0.09947 
H          H       0.96745   0.80797   0.14292 
H          H       0.96745   0.19203   0.14292 
H          H       0.46745   0.30797   0.14292 
H          H       0.46745   0.69203   0.14292 
H          H       0.12322   0.80797   0.06825 
H          H       0.12322   0.19203   0.06825 
H          H       0.62322   0.30797   0.06825 
H          H       0.62322   0.69203   0.06825 
H          H       0.22329   0.87879   0.10297 
H          H       0.22329   0.12121   0.10297 
H          H       0.72329   0.37879   0.10297 
H          H       0.72329   0.62121   0.10297 
H          H       0.28555   0.84313   0.09945 
H          H       0.28555   0.15687   0.09945 
H          H       0.78555   0.34313   0.09945 
H          H       0.78555   0.65687   0.09945 
H          H       0.19810   0.74092   0.19493 
H          H       0.19810   0.25908   0.19493 
H          H       0.69810   0.24092   0.19493 
H          H       0.69810   0.75908   0.19493 
H          H       0.13645   0.77609   0.20111 
H          H       0.13645   0.22391   0.20111 
H          H       0.63645   0.27609   0.20111 
H          H       0.63645   0.72391   0.20111 
H          H       0.86737   0.87879   0.10820 
H          H       0.86737   0.12121   0.10820 
H          H       0.36737   0.37879   0.10820 
H          H       0.36737   0.62121   0.10820 
H          H       0.80511   0.84313   0.11173 
H          H       0.80511   0.15687   0.11173 
H          H       0.30511   0.34313   0.11173 
H          H       0.30511   0.65687   0.11173 
H          H       0.89257   0.74092   0.01624 
H          H       0.89257   0.25908   0.01624 
H          H       0.39257   0.24092   0.01624 
H          H       0.39257   0.75908   0.01624 
H          H       0.95421   0.77609   0.01007 
H          H       0.95421   0.22391   0.01007 
H          H       0.45421   0.27609   0.01007 
H          H       0.45421   0.72391   0.01007 
H          H       0.30716   0.78374   0.15950 
H          H       0.30716   0.21626   0.15950 
H          H       0.80716   0.28374   0.15950 
H          H       0.80716   0.71626   0.15950 
H          H       0.78351   0.78374   0.05167 
H          H       0.78351   0.21626   0.05167 
H          H       0.28351   0.28374   0.05167 
H          H       0.28351   0.71626   0.05167 
C          C       0.08271   0.98011   0.94275 
C          C       0.08271   0.01989   0.94275 
C          C       0.58271   0.48011   0.94275 
C          C       0.58271   0.51989   0.94275 
C          C       0.11982   0.96085   0.78232 
C          C       0.11982   0.03915   0.78232 
C          C       0.61982   0.46085   0.78232 
C          C       0.61982   0.53915   0.78232 
C          C       0.15540   0.98047   0.62567 
C          C       0.15540   0.01953   0.62567 
C          C       0.65540   0.48047   0.62567 
C          C       0.65540   0.51953   0.62567 
N          N       0.04533   0.95973   0.60559 
N          N       0.04533   0.04027   0.60559 
N          N       0.54533   0.45973   0.60559 
N          N       0.54533   0.54027   0.60559 
C          C       0.00796   0.98011   0.76843 
C          C       0.00796   0.01989   0.76843 
C          C       0.50796   0.48011   0.76843 
C          C       0.50796   0.51989   0.76843 
C          C       0.93526   0.98047   0.58550 
C          C       0.93526   0.01953   0.58550 
C          C       0.43526   0.48047   0.58550 
C          C       0.43526   0.51953   0.58550 
C          C       0.97085   0.96085   0.92885 
C          C       0.97085   0.03915   0.92885 
C          C       0.47085   0.46085   0.92885 
C          C       0.47085   0.53915   0.92885 
C          C       0.04533   0.91916   0.60559 
C          C       0.04533   0.08084   0.60559 
C          C       0.54533   0.41916   0.60559 
C          C       0.54533   0.58084   0.60559 
C          C       0.00946   0.89933   0.60750 
C          C       0.00946   0.10067   0.60750 
C          C       0.50946   0.39933   0.60750 
C          C       0.50946   0.60067   0.60750 
C          C       0.00948   0.85987   0.60715 
C          C       0.00948   0.14013   0.60715 
C          C       0.50948   0.35987   0.60715 
C          C       0.50948   0.64013   0.60715 
C          C       0.04533   0.84058   0.60559 
C          C       0.04533   0.15942   0.60559 
C          C       0.54533   0.34058   0.60559 
C          C       0.54533   0.65942   0.60559 
C          C       0.08119   0.85987   0.60403 
C          C       0.08119   0.14013   0.60403 
C          C       0.58119   0.35987   0.60403 
C          C       0.58119   0.64013   0.60403 
C          C       0.08121   0.89933   0.60368 
C          C       0.08121   0.10067   0.60368 
C          C       0.58121   0.39933   0.60368 
C          C       0.58121   0.60067   0.60368 
C          C       0.97258   0.83743   0.61052 
C          C       0.97258   0.16257   0.61052 
C          C       0.47258   0.33743   0.61052 
C          C       0.47258   0.66257   0.61052 
C          C       0.11809   0.83743   0.60066 
C          C       0.11809   0.16257   0.60066 
C          C       0.61809   0.33743   0.60066 
C          C       0.61809   0.66257   0.60066 
N          N       0.14336   0.85175   0.63619 
N          N       0.14336   0.14825   0.63619 
N          N       0.64336   0.35175   0.63619 
N          N       0.64336   0.64825   0.63619 
C          C       0.17726   0.83019   0.64268 
C          C       0.17726   0.16981   0.64268 
C          C       0.67726   0.33019   0.64268 
C          C       0.67726   0.66981   0.64268 
C          C       0.94731   0.85175   0.57499 
C          C       0.94731   0.14825   0.57499 
C          C       0.44731   0.35175   0.57499 
C          C       0.44731   0.64825   0.57499 
C          C       0.91340   0.83019   0.56849 
C          C       0.91340   0.16981   0.56849 
C          C       0.41340   0.33019   0.56849 
C          C       0.41340   0.66981   0.56849 
C          C       0.21814   0.84864   0.62137 
C          C       0.21814   0.15136   0.62137 
C          C       0.71814   0.34864   0.62137 
C          C       0.71814   0.65136   0.62137 
C          C       0.25353   0.82827   0.61938 
C          C       0.25353   0.17173   0.61938 
C          C       0.75353   0.32827   0.61938 
C          C       0.75353   0.67173   0.61938 
C          C       0.24870   0.78900   0.63844 
C          C       0.24870   0.21100   0.63844 
C          C       0.74870   0.28900   0.63844 
C          C       0.74870   0.71100   0.63844 
N          N       0.20543   0.77078   0.66978 
N          N       0.20543   0.22922   0.66978 
N          N       0.70543   0.27078   0.66978 
N          N       0.70543   0.72922   0.66978 
C          C       0.16995   0.79113   0.67278 
C          C       0.16995   0.20887   0.67278 
C          C       0.66995   0.29113   0.67278 
C          C       0.66995   0.70887   0.67278 
C          C       0.87253   0.84864   0.58982 
C          C       0.87253   0.15136   0.58982 
C          C       0.37253   0.34864   0.58982 
C          C       0.37253   0.65136   0.58982 
C          C       0.83713   0.82827   0.59180 
C          C       0.83713   0.17173   0.59180 
C          C       0.33713   0.32827   0.59180 
C          C       0.33713   0.67173   0.59180 
C          C       0.84197   0.78900   0.57274 
C          C       0.84197   0.21100   0.57274 
C          C       0.34197   0.28900   0.57274 
C          C       0.34197   0.71100   0.57274 
C          C       0.88523   0.77078   0.54140 
C          C       0.88523   0.22922   0.54140 
C          C       0.38523   0.27078   0.54140 
C          C       0.38523   0.72922   0.54140 
C          C       0.92072   0.79113   0.53839 
C          C       0.92072   0.20887   0.53839 
C          C       0.42072   0.29113   0.53839 
C          C       0.42072   0.70887   0.53839 
C          C       0.28833   0.76816   0.62917 
C          C       0.28833   0.23184   0.62917 
C          C       0.78833   0.26816   0.62917 
C          C       0.78833   0.73184   0.62917 
C          C       0.80234   0.76816   0.58200 
C          C       0.80234   0.23184   0.58200 
C          C       0.30234   0.26816   0.58200 
C          C       0.30234   0.73184   0.58200 
H          H       0.12165   0.93051   0.77697 
H          H       0.12165   0.06949   0.77697 
H          H       0.62165   0.43051   0.77697 
H          H       0.62165   0.56949   0.77697 
H          H       0.18335   0.96531   0.50376 
H          H       0.18335   0.03469   0.50376 
H          H       0.68335   0.46531   0.50376 
H          H       0.68335   0.53469   0.50376 
H          H       0.90731   0.96531   0.70742 
H          H       0.90731   0.03469   0.70742 
H          H       0.40731   0.46531   0.70742 
H          H       0.40731   0.53469   0.70742 
H          H       0.96902   0.93051   0.93421 
H          H       0.96902   0.06949   0.93421 
H          H       0.46902   0.43051   0.93421 
H          H       0.46902   0.56949   0.93421 
H          H       0.98132   0.91467   0.61171 
H          H       0.98132   0.08533   0.61171 
H          H       0.48132   0.41467   0.61171 
H          H       0.48132   0.58533   0.61171 
H          H       0.04533   0.81011   0.60559 
H          H       0.04533   0.18989   0.60559 
H          H       0.54533   0.31011   0.60559 
H          H       0.54533   0.68989   0.60559 
H          H       0.10934   0.91467   0.59947 
H          H       0.10934   0.08533   0.59947 
H          H       0.60934   0.41467   0.59947 
H          H       0.60934   0.58533   0.59947 
H          H       0.96745   0.80797   0.64292 
H          H       0.96745   0.19203   0.64292 
H          H       0.46745   0.30797   0.64292 
H          H       0.46745   0.69203   0.64292 
H          H       0.12322   0.80797   0.56825 
H          H       0.12322   0.19203   0.56825 
H          H       0.62322   0.30797   0.56825 
H          H       0.62322   0.69203   0.56825 
H          H       0.22329   0.87879   0.60297 
H          H       0.22329   0.12121   0.60297 
H          H       0.72329   0.37879   0.60297 
H          H       0.72329   0.62121   0.60297 
H          H       0.28555   0.84313   0.59945 
H          H       0.28555   0.15687   0.59945 
H          H       0.78555   0.34313   0.59945 
H          H       0.78555   0.65687   0.59945 
H          H       0.19810   0.74092   0.69493 
H          H       0.19810   0.25908   0.69493 
H          H       0.69810   0.24092   0.69493 
H          H       0.69810   0.75908   0.69493 
H          H       0.13645   0.77609   0.70111 
H          H       0.13645   0.22391   0.70111 
H          H       0.63645   0.27609   0.70111 
H          H       0.63645   0.72391   0.70111 
H          H       0.86737   0.87879   0.60820 
H          H       0.86737   0.12121   0.60820 
H          H       0.36737   0.37879   0.60820 
H          H       0.36737   0.62121   0.60820 
H          H       0.80511   0.84313   0.61173 
H          H       0.80511   0.15687   0.61173 
H          H       0.30511   0.34313   0.61173 
H          H       0.30511   0.65687   0.61173 
H          H       0.89257   0.74092   0.51625 
H          H       0.89257   0.25908   0.51625 
H          H       0.39257   0.24092   0.51625 
H          H       0.39257   0.75908   0.51625 
H          H       0.95421   0.77609   0.51007 
H          H       0.95421   0.22391   0.51007 
H          H       0.45421   0.27609   0.51007 
H          H       0.45421   0.72391   0.51007 
H          H       0.30716   0.78374   0.65950 
H          H       0.30716   0.21626   0.65950 
H          H       0.80716   0.28374   0.65950 
H          H       0.80716   0.71626   0.65950 
H          H       0.78351   0.78374   0.55168 
H          H       0.78351   0.21626   0.55168 
H          H       0.28351   0.28374   0.55168 
H          H       0.28351   0.71626   0.55168 
