data_crystal
 
_cell_length_a    31.60000
_cell_length_b    31.20000
_cell_length_c    11.80000
_cell_angle_alpha 90.00000
_cell_angle_beta  140.50000
_cell_angle_gamma 90.00000
 
_symmetry_space_group_name_Hall 'P 1'
_symmetry_space_group_name_H-M  'P 1'
 
loop_
_symmetry_equiv_pos_as_xyz
 'x,y,z' 
 
loop_
_atom_site_label
_atom_site_type_symbol
_atom_site_fract_x
_atom_site_fract_y
_atom_site_fract_z
C          C       0.29002   0.02267   0.40800 
C          C       0.29002   0.97733   0.40800 
C          C       0.79002   0.52267   0.40800 
C          C       0.79002   0.47733   0.40800 
C          C       0.32880   0.04461   0.06850 
C          C       0.32880   0.95539   0.06850 
C          C       0.82880   0.54461   0.06850 
C          C       0.82880   0.45539   0.06850 
C          C       0.36698   0.02226   0.22550 
C          C       0.36698   0.97774   0.22550 
C          C       0.86698   0.52226   0.22550 
C          C       0.86698   0.47774   0.22550 
N          N       0.25137   0.04593   0.24600 
N          N       0.25137   0.95407   0.24600 
N          N       0.75137   0.54593   0.24600 
N          N       0.75137   0.45407   0.24600 
C          C       0.21218   0.02268   0.08000 
C          C       0.21218   0.97732   0.08000 
C          C       0.71218   0.52268   0.08000 
C          C       0.71218   0.47732   0.08000 
C          C       0.13451   0.02227   0.26533 
C          C       0.13451   0.97773   0.26533 
C          C       0.63451   0.52227   0.26533 
C          C       0.63451   0.47773   0.26533 
C          C       0.17278   0.04464   0.42239 
C          C       0.17278   0.95536   0.42239 
C          C       0.67278   0.54464   0.42239 
C          C       0.67278   0.45536   0.42239 
C          C       0.25169   0.09220   0.24644 
C          C       0.25169   0.90780   0.24644 
C          C       0.75169   0.59220   0.24644 
C          C       0.75169   0.40780   0.24644 
C          C       0.21336   0.11496   0.24632 
C          C       0.21336   0.88504   0.24632 
C          C       0.71336   0.61496   0.24632 
C          C       0.71336   0.38504   0.24632 
C          C       0.21438   0.15994   0.24954 
C          C       0.21438   0.84006   0.24954 
C          C       0.71438   0.65994   0.24954 
C          C       0.71438   0.34006   0.24954 
C          C       0.25307   0.18189   0.25006 
C          C       0.25307   0.81811   0.25006 
C          C       0.75307   0.68189   0.25006 
C          C       0.75307   0.31811   0.25006 
C          C       0.29141   0.15972   0.24974 
C          C       0.29141   0.84028   0.24974 
C          C       0.79141   0.65972   0.24974 
C          C       0.79141   0.34028   0.24974 
C          C       0.29087   0.11470   0.24887 
C          C       0.29087   0.88530   0.24887 
C          C       0.79087   0.61470   0.24887 
C          C       0.79087   0.38530   0.24887 
C          C       0.17620   0.18531   0.25314 
C          C       0.17620   0.81469   0.25314 
C          C       0.67620   0.68531   0.25314 
C          C       0.67620   0.31469   0.25314 
C          C       0.33199   0.18497   0.25388 
C          C       0.33199   0.81503   0.25388 
C          C       0.83199   0.68497   0.25388 
C          C       0.83199   0.31503   0.25388 
N          N       0.37441   0.16713   0.27316 
N          N       0.37441   0.83287   0.27316 
N          N       0.87441   0.66713   0.27316 
N          N       0.87441   0.33287   0.27316 
C          C       0.41794   0.19069   0.28896 
C          C       0.41794   0.80931   0.28896 
C          C       0.91794   0.69069   0.28896 
C          C       0.91794   0.30931   0.28896 
C          C       0.44205   0.17069   0.24067 
C          C       0.44205   0.82931   0.24067 
C          C       0.94205   0.67069   0.24067 
C          C       0.94205   0.32931   0.24067 
C          C       0.48214   0.19448   0.24773 
C          C       0.48214   0.80552   0.24773 
C          C       0.98214   0.69448   0.24773 
C          C       0.98214   0.30552   0.24773 
C          C       0.50067   0.23702   0.31027 
C          C       0.50067   0.76298   0.31027 
C          C       0.00067   0.73702   0.31027 
C          C       0.00067   0.26298   0.31027 
C          C       0.47931   0.25545   0.36786 
C          C       0.47931   0.74455   0.36786 
C          C       0.97931   0.75545   0.36786 
C          C       0.97931   0.24455   0.36786 
C          C       0.43850   0.23267   0.35738 
C          C       0.43850   0.76733   0.35738 
C          C       0.93850   0.73267   0.35738 
C          C       0.93850   0.26733   0.35738 
N          N       0.14970   0.16798   0.28742 
N          N       0.14970   0.83202   0.28742 
N          N       0.64970   0.66798   0.28742 
N          N       0.64970   0.33202   0.28742 
C          C       0.11486   0.19162   0.30153 
C          C       0.11486   0.80838   0.30153 
C          C       0.61486   0.69162   0.30153 
C          C       0.61486   0.30838   0.30153 
C          C       0.06858   0.17001   0.27433 
C          C       0.06858   0.82999   0.27433 
C          C       0.56858   0.67001   0.27433 
C          C       0.56858   0.32999   0.27433 
C          C       0.03116   0.19360   0.27707 
C          C       0.03116   0.80640   0.27707 
C          C       0.53116   0.69360   0.27707 
C          C       0.53116   0.30640   0.27707 
C          C       0.04187   0.23784   0.31432 
C          C       0.04187   0.76216   0.31432 
C          C       0.54187   0.73784   0.31432 
C          C       0.54187   0.26216   0.31432 
C          C       0.09173   0.25808   0.35367 
C          C       0.09173   0.74192   0.35367 
C          C       0.59173   0.75808   0.35367 
C          C       0.59173   0.24192   0.35367 
C          C       0.12764   0.23537   0.34699 
C          C       0.12764   0.76463   0.34699 
C          C       0.62764   0.73537   0.34699 
C          C       0.62764   0.26463   0.34699 
H          H       0.33013   0.07917   0.07435 
H          H       0.33013   0.92083   0.07435 
H          H       0.83013   0.57917   0.07435 
H          H       0.83013   0.42083   0.07435 
H          H       0.39686   0.03951   0.34823 
H          H       0.39686   0.96049   0.34823 
H          H       0.89686   0.53951   0.34823 
H          H       0.89686   0.46049   0.34823 
H          H       0.10445   0.03955   0.14295 
H          H       0.10445   0.96045   0.14295 
H          H       0.60445   0.53955   0.14295 
H          H       0.60445   0.46045   0.14295 
H          H       0.17103   0.07923   0.41686 
H          H       0.17103   0.92077   0.41686 
H          H       0.67103   0.57923   0.41686 
H          H       0.67103   0.42077   0.41686 
H          H       0.18297   0.09756   0.24327 
H          H       0.18297   0.90244   0.24327 
H          H       0.68297   0.59756   0.24327 
H          H       0.68297   0.40244   0.24327 
H          H       0.25390   0.21665   0.25268 
H          H       0.25390   0.78335   0.25268 
H          H       0.75390   0.71665   0.25268 
H          H       0.75390   0.28335   0.25268 
H          H       0.32087   0.09708   0.25115 
H          H       0.32087   0.90292   0.25115 
H          H       0.82087   0.59708   0.25115 
H          H       0.82087   0.40292   0.25115 
H          H       0.17126   0.21935   0.22751 
H          H       0.17126   0.78065   0.22751 
H          H       0.67126   0.71935   0.22751 
H          H       0.67126   0.28065   0.22751 
H          H       0.32564   0.21943   0.24104 
H          H       0.32564   0.78057   0.24104 
H          H       0.82564   0.71943   0.24104 
H          H       0.82564   0.28057   0.24104 
O          O       0.42346   0.12768   0.18354 
O          O       0.42346   0.87232   0.18354 
O          O       0.92346   0.62768   0.18354 
O          O       0.92346   0.37232   0.18354 
H          H       0.49783   0.18050   0.20106 
H          H       0.49783   0.81950   0.20106 
H          H       0.99783   0.68050   0.20106 
H          H       0.99783   0.31950   0.20106 
H          H       0.49448   0.28752   0.42245 
H          H       0.49448   0.71248   0.42245 
H          H       0.99448   0.78752   0.42245 
H          H       0.99448   0.21248   0.42245 
H          H       0.42413   0.24789   0.40603 
H          H       0.42413   0.75211   0.40603 
H          H       0.92413   0.74789   0.40603 
H          H       0.92413   0.25211   0.40603 
O          O       0.06072   0.12556   0.24074 
O          O       0.06072   0.87444   0.24074 
O          O       0.56072   0.62556   0.24074 
O          O       0.56072   0.37444   0.24074 
H          H       0.99249   0.17805   0.24569 
H          H       0.99249   0.82195   0.24569 
H          H       0.49249   0.67805   0.24569 
H          H       0.49249   0.32195   0.24569 
H          H       0.10334   0.29159   0.39050 
H          H       0.10334   0.70841   0.39050 
H          H       0.60334   0.79159   0.39050 
H          H       0.60334   0.20841   0.39050 
H          H       0.16620   0.25217   0.38066 
H          H       0.16620   0.74783   0.38066 
H          H       0.66620   0.75217   0.38066 
H          H       0.66620   0.24783   0.38066 
C          C       0.45802   0.10388   0.17009 
C          C       0.45802   0.89612   0.17009 
C          C       0.95802   0.60388   0.17009 
C          C       0.95802   0.39612   0.17009 
C          C       0.02709   0.10123   0.25608 
C          C       0.02709   0.89877   0.25608 
C          C       0.52709   0.60123   0.25608 
C          C       0.52709   0.39877   0.25608 
H          H       0.44705   0.11666   0.06230 
H          H       0.44705   0.88334   0.06230 
H          H       0.94705   0.61666   0.06230 
H          H       0.94705   0.38334   0.06230 
H          H       0.44055   0.07017   0.13665 
H          H       0.44055   0.92983   0.13665 
H          H       0.94055   0.57017   0.13665 
H          H       0.94055   0.42983   0.13665 
H          H       0.51243   0.10413   0.29848 
H          H       0.51243   0.89587   0.29848 
H          H       0.01243   0.60413   0.29848 
H          H       0.01243   0.39587   0.29848 
H          H       0.05063   0.10621   0.38831 
H          H       0.05063   0.89379   0.38831 
H          H       0.55063   0.60621   0.38831 
H          H       0.55063   0.39379   0.38831 
H          H       0.03104   0.06672   0.24269 
H          H       0.03104   0.93328   0.24269 
H          H       0.53104   0.56672   0.24269 
H          H       0.53104   0.43328   0.24269 
H          H       0.97344   0.10965   0.14818 
H          H       0.97344   0.89035   0.14818 
H          H       0.47344   0.60965   0.14818 
H          H       0.47344   0.39035   0.14818 
C          C       0.29002   0.02267   0.90800 
C          C       0.29002   0.97733   0.90800 
C          C       0.79002   0.52267   0.90800 
C          C       0.79002   0.47733   0.90800 
C          C       0.32880   0.04461   0.56850 
C          C       0.32880   0.95539   0.56850 
C          C       0.82880   0.54461   0.56850 
C          C       0.82880   0.45539   0.56850 
C          C       0.36698   0.02226   0.72550 
C          C       0.36698   0.97774   0.72550 
C          C       0.86698   0.52226   0.72550 
C          C       0.86698   0.47774   0.72550 
N          N       0.25137   0.04593   0.74600 
N          N       0.25137   0.95407   0.74600 
N          N       0.75137   0.54593   0.74600 
N          N       0.75137   0.45407   0.74600 
C          C       0.21218   0.02268   0.58000 
C          C       0.21218   0.97732   0.58000 
C          C       0.71218   0.52268   0.58000 
C          C       0.71218   0.47732   0.58000 
C          C       0.13451   0.02227   0.76533 
C          C       0.13451   0.97773   0.76533 
C          C       0.63451   0.52227   0.76533 
C          C       0.63451   0.47773   0.76533 
C          C       0.17278   0.04464   0.92239 
C          C       0.17278   0.95536   0.92239 
C          C       0.67278   0.54464   0.92239 
C          C       0.67278   0.45536   0.92239 
C          C       0.25169   0.09220   0.74645 
C          C       0.25169   0.90780   0.74645 
C          C       0.75169   0.59220   0.74645 
C          C       0.75169   0.40780   0.74645 
C          C       0.21336   0.11496   0.74632 
C          C       0.21336   0.88504   0.74632 
C          C       0.71336   0.61496   0.74632 
C          C       0.71336   0.38504   0.74632 
C          C       0.21438   0.15994   0.74954 
C          C       0.21438   0.84006   0.74954 
C          C       0.71438   0.65994   0.74954 
C          C       0.71438   0.34006   0.74954 
C          C       0.25307   0.18189   0.75006 
C          C       0.25307   0.81811   0.75006 
C          C       0.75307   0.68189   0.75006 
C          C       0.75307   0.31811   0.75006 
C          C       0.29141   0.15972   0.74974 
C          C       0.29141   0.84028   0.74974 
C          C       0.79141   0.65972   0.74974 
C          C       0.79141   0.34028   0.74974 
C          C       0.29087   0.11470   0.74887 
C          C       0.29087   0.88530   0.74887 
C          C       0.79087   0.61470   0.74887 
C          C       0.79087   0.38530   0.74887 
C          C       0.17620   0.18531   0.75314 
C          C       0.17620   0.81469   0.75314 
C          C       0.67620   0.68531   0.75314 
C          C       0.67620   0.31469   0.75314 
C          C       0.33199   0.18497   0.75388 
C          C       0.33199   0.81503   0.75388 
C          C       0.83199   0.68497   0.75388 
C          C       0.83199   0.31503   0.75388 
N          N       0.37441   0.16713   0.77317 
N          N       0.37441   0.83287   0.77317 
N          N       0.87441   0.66713   0.77317 
N          N       0.87441   0.33287   0.77317 
C          C       0.41794   0.19069   0.78896 
C          C       0.41794   0.80931   0.78896 
C          C       0.91794   0.69069   0.78896 
C          C       0.91794   0.30931   0.78896 
C          C       0.44205   0.17069   0.74067 
C          C       0.44205   0.82931   0.74067 
C          C       0.94205   0.67069   0.74067 
C          C       0.94205   0.32931   0.74067 
C          C       0.48214   0.19448   0.74773 
C          C       0.48214   0.80552   0.74773 
C          C       0.98214   0.69448   0.74773 
C          C       0.98214   0.30552   0.74773 
C          C       0.50067   0.23702   0.81027 
C          C       0.50067   0.76298   0.81027 
C          C       0.00067   0.73702   0.81027 
C          C       0.00067   0.26298   0.81027 
C          C       0.47931   0.25545   0.86786 
C          C       0.47931   0.74455   0.86786 
C          C       0.97931   0.75545   0.86786 
C          C       0.97931   0.24455   0.86786 
C          C       0.43850   0.23267   0.85738 
C          C       0.43850   0.76733   0.85738 
C          C       0.93850   0.73267   0.85738 
C          C       0.93850   0.26733   0.85738 
N          N       0.14970   0.16798   0.78743 
N          N       0.14970   0.83202   0.78743 
N          N       0.64970   0.66798   0.78743 
N          N       0.64970   0.33202   0.78743 
C          C       0.11486   0.19162   0.80153 
C          C       0.11486   0.80838   0.80153 
C          C       0.61486   0.69162   0.80153 
C          C       0.61486   0.30838   0.80153 
C          C       0.06858   0.17001   0.77433 
C          C       0.06858   0.82999   0.77433 
C          C       0.56858   0.67001   0.77433 
C          C       0.56858   0.32999   0.77433 
C          C       0.03116   0.19360   0.77707 
C          C       0.03116   0.80640   0.77707 
C          C       0.53116   0.69360   0.77707 
C          C       0.53116   0.30640   0.77707 
C          C       0.04187   0.23784   0.81432 
C          C       0.04187   0.76216   0.81432 
C          C       0.54187   0.73784   0.81432 
C          C       0.54187   0.26216   0.81432 
C          C       0.09173   0.25808   0.85367 
C          C       0.09173   0.74192   0.85367 
C          C       0.59173   0.75808   0.85367 
C          C       0.59173   0.24192   0.85367 
C          C       0.12764   0.23537   0.84699 
C          C       0.12764   0.76463   0.84699 
C          C       0.62764   0.73537   0.84699 
C          C       0.62764   0.26463   0.84699 
H          H       0.33013   0.07917   0.57435 
H          H       0.33013   0.92083   0.57435 
H          H       0.83013   0.57917   0.57435 
H          H       0.83013   0.42083   0.57435 
H          H       0.39686   0.03951   0.84823 
H          H       0.39686   0.96049   0.84823 
H          H       0.89686   0.53951   0.84823 
H          H       0.89686   0.46049   0.84823 
H          H       0.10445   0.03955   0.64295 
H          H       0.10445   0.96045   0.64295 
H          H       0.60445   0.53955   0.64295 
H          H       0.60445   0.46045   0.64295 
H          H       0.17103   0.07923   0.91686 
H          H       0.17103   0.92077   0.91686 
H          H       0.67103   0.57923   0.91686 
H          H       0.67103   0.42077   0.91686 
H          H       0.18297   0.09756   0.74327 
H          H       0.18297   0.90244   0.74327 
H          H       0.68297   0.59756   0.74327 
H          H       0.68297   0.40244   0.74327 
H          H       0.25390   0.21665   0.75268 
H          H       0.25390   0.78335   0.75268 
H          H       0.75390   0.71665   0.75268 
H          H       0.75390   0.28335   0.75268 
H          H       0.32087   0.09708   0.75115 
H          H       0.32087   0.90292   0.75115 
H          H       0.82087   0.59708   0.75115 
H          H       0.82087   0.40292   0.75115 
H          H       0.17126   0.21935   0.72751 
H          H       0.17126   0.78065   0.72751 
H          H       0.67126   0.71935   0.72751 
H          H       0.67126   0.28065   0.72751 
H          H       0.32564   0.21943   0.74104 
H          H       0.32564   0.78057   0.74104 
H          H       0.82564   0.71943   0.74104 
H          H       0.82564   0.28057   0.74104 
O          O       0.42346   0.12768   0.68354 
O          O       0.42346   0.87232   0.68354 
O          O       0.92346   0.62768   0.68354 
O          O       0.92346   0.37232   0.68354 
H          H       0.49783   0.18050   0.70107 
H          H       0.49783   0.81950   0.70107 
H          H       0.99783   0.68050   0.70107 
H          H       0.99783   0.31950   0.70107 
H          H       0.49448   0.28752   0.92245 
H          H       0.49448   0.71248   0.92245 
H          H       0.99448   0.78752   0.92245 
H          H       0.99448   0.21248   0.92245 
H          H       0.42413   0.24789   0.90603 
H          H       0.42413   0.75211   0.90603 
H          H       0.92413   0.74789   0.90603 
H          H       0.92413   0.25211   0.90603 
O          O       0.06072   0.12556   0.74073 
O          O       0.06072   0.87444   0.74073 
O          O       0.56072   0.62556   0.74073 
O          O       0.56072   0.37444   0.74073 
H          H       0.99249   0.17805   0.74569 
H          H       0.99249   0.82195   0.74569 
H          H       0.49249   0.67805   0.74569 
H          H       0.49249   0.32195   0.74569 
H          H       0.10334   0.29159   0.89050 
H          H       0.10334   0.70841   0.89050 
H          H       0.60334   0.79159   0.89050 
H          H       0.60334   0.20841   0.89050 
H          H       0.16620   0.25217   0.88066 
H          H       0.16620   0.74783   0.88066 
H          H       0.66620   0.75217   0.88066 
H          H       0.66620   0.24783   0.88066 
C          C       0.45802   0.10388   0.67009 
C          C       0.45802   0.89612   0.67009 
C          C       0.95802   0.60388   0.67009 
C          C       0.95802   0.39612   0.67009 
C          C       0.02709   0.10123   0.75608 
C          C       0.02709   0.89877   0.75608 
C          C       0.52709   0.60123   0.75608 
C          C       0.52709   0.39877   0.75608 
H          H       0.44705   0.11666   0.56230 
H          H       0.44705   0.88334   0.56230 
H          H       0.94705   0.61666   0.56230 
H          H       0.94705   0.38334   0.56230 
H          H       0.44055   0.07017   0.63665 
H          H       0.44055   0.92983   0.63665 
H          H       0.94055   0.57017   0.63665 
H          H       0.94055   0.42983   0.63665 
H          H       0.51243   0.10413   0.79848 
H          H       0.51243   0.89587   0.79848 
H          H       0.01243   0.60413   0.79848 
H          H       0.01243   0.39587   0.79848 
H          H       0.05063   0.10621   0.88831 
H          H       0.05063   0.89379   0.88831 
H          H       0.55063   0.60621   0.88831 
H          H       0.55063   0.39379   0.88831 
H          H       0.03104   0.06672   0.74269 
H          H       0.03104   0.93328   0.74269 
H          H       0.53104   0.56672   0.74269 
H          H       0.53104   0.43328   0.74269 
H          H       0.97344   0.10965   0.64818 
H          H       0.97344   0.89035   0.64818 
H          H       0.47344   0.60965   0.64818 
H          H       0.47344   0.39035   0.64818 
