data_crystal
 
_cell_length_a    30.90000
_cell_length_b    33.20000
_cell_length_c    11.60000
_cell_angle_alpha 90.00000
_cell_angle_beta  139.20000
_cell_angle_gamma 90.00000
 
_symmetry_space_group_name_Hall 'P 1'
_symmetry_space_group_name_H-M  'P 1'
 
loop_
_symmetry_equiv_pos_as_xyz
 'x,y,z' 
 
loop_
_atom_site_label
_atom_site_type_symbol
_atom_site_fract_x
_atom_site_fract_y
_atom_site_fract_z
C          C       0.29089   0.02140   0.39354 
C          C       0.29089   0.97860   0.39354 
C          C       0.79089   0.52140   0.39354 
C          C       0.79089   0.47860   0.39354 
C          C       0.32970   0.04194   0.05434 
C          C       0.32970   0.95806   0.05434 
C          C       0.82970   0.54194   0.05434 
C          C       0.82970   0.45806   0.05434 
C          C       0.36790   0.02092   0.21159 
C          C       0.36790   0.97908   0.21159 
C          C       0.86790   0.52092   0.21159 
C          C       0.86790   0.47908   0.21159 
N          N       0.25182   0.04352   0.23086 
N          N       0.25182   0.95648   0.23086 
N          N       0.75182   0.54352   0.23086 
N          N       0.75182   0.45648   0.23086 
C          C       0.21154   0.02141   0.06749 
C          C       0.21154   0.97859   0.06749 
C          C       0.71154   0.52141   0.06749 
C          C       0.71154   0.47859   0.06749 
C          C       0.13173   0.02093   0.24801 
C          C       0.13173   0.97907   0.24801 
C          C       0.63173   0.52093   0.24801 
C          C       0.63173   0.47907   0.24801 
C          C       0.17093   0.04199   0.40576 
C          C       0.17093   0.95801   0.40576 
C          C       0.67093   0.54199   0.40576 
C          C       0.67093   0.45801   0.40576 
C          C       0.25164   0.08729   0.23067 
C          C       0.25164   0.91271   0.23067 
C          C       0.75164   0.58729   0.23067 
C          C       0.75164   0.41271   0.23067 
C          C       0.21092   0.10856   0.22642 
C          C       0.21092   0.89144   0.22642 
C          C       0.71092   0.60856   0.22642 
C          C       0.71092   0.39144   0.22642 
C          C       0.21046   0.15094   0.22603 
C          C       0.21046   0.84906   0.22603 
C          C       0.71046   0.65094   0.22603 
C          C       0.71046   0.34906   0.22603 
C          C       0.25013   0.17172   0.22706 
C          C       0.25013   0.82828   0.22706 
C          C       0.75013   0.67172   0.22706 
C          C       0.75013   0.32828   0.22706 
C          C       0.29113   0.15145   0.23180 
C          C       0.29113   0.84855   0.23180 
C          C       0.79113   0.65145   0.23180 
C          C       0.79113   0.34855   0.23180 
C          C       0.29203   0.10901   0.23443 
C          C       0.29203   0.89099   0.23443 
C          C       0.79203   0.60901   0.23443 
C          C       0.79203   0.39099   0.23443 
C          C       0.17017   0.17543   0.22524 
C          C       0.17017   0.82457   0.22524 
C          C       0.67017   0.67543   0.22524 
C          C       0.67017   0.32457   0.22524 
C          C       0.33170   0.17662   0.23489 
C          C       0.33170   0.82338   0.23489 
C          C       0.83170   0.67662   0.23489 
C          C       0.83170   0.32338   0.23489 
N          N       0.38120   0.16277   0.27481 
N          N       0.38120   0.83723   0.27481 
N          N       0.88120   0.66277   0.27481 
N          N       0.88120   0.33723   0.27481 
C          C       0.42301   0.18812   0.28812 
C          C       0.42301   0.81188   0.28812 
C          C       0.92301   0.68812   0.28812 
C          C       0.92301   0.31188   0.28812 
C          C       0.45382   0.17210   0.25123 
C          C       0.45382   0.82790   0.25123 
C          C       0.95382   0.67210   0.25123 
C          C       0.95382   0.32790   0.25123 
C          C       0.49076   0.19742   0.25253 
C          C       0.49076   0.80258   0.25253 
C          C       0.99076   0.69742   0.25253 
C          C       0.99076   0.30258   0.25253 
C          C       0.49994   0.23852   0.29701 
C          C       0.49994   0.76148   0.29701 
C          C       0.99994   0.73852   0.29701 
C          C       0.99994   0.26148   0.29701 
C          C       0.47217   0.25366   0.34331 
C          C       0.47217   0.74634   0.34331 
C          C       0.97217   0.75366   0.34331 
C          C       0.97217   0.24634   0.34331 
C          C       0.43437   0.22891   0.33911 
C          C       0.43437   0.77109   0.33911 
C          C       0.93437   0.72891   0.33911 
C          C       0.93437   0.27109   0.33911 
N          N       0.14174   0.16068   0.25933 
N          N       0.14174   0.83932   0.25933 
N          N       0.64174   0.66068   0.25933 
N          N       0.64174   0.33932   0.25933 
C          C       0.10728   0.18532   0.27347 
C          C       0.10728   0.81468   0.27347 
C          C       0.60728   0.68532   0.27347 
C          C       0.60728   0.31468   0.27347 
C          C       0.05413   0.16934   0.23088 
C          C       0.05413   0.83066   0.23088 
C          C       0.55413   0.66934   0.23088 
C          C       0.55413   0.33066   0.23088 
C          C       0.01986   0.19415   0.24035 
C          C       0.01986   0.80585   0.24035 
C          C       0.51986   0.69415   0.24035 
C          C       0.51986   0.30585   0.24035 
C          C       0.03821   0.23467   0.29457 
C          C       0.03821   0.76533   0.29457 
C          C       0.53821   0.73467   0.29457 
C          C       0.53821   0.26533   0.29457 
C          C       0.09308   0.24959   0.34449 
C          C       0.09308   0.75041   0.34449 
C          C       0.59308   0.74959   0.34449 
C          C       0.59308   0.25041   0.34449 
C          C       0.12709   0.22537   0.33454 
C          C       0.12709   0.77463   0.33454 
C          C       0.62709   0.72537   0.33454 
C          C       0.62709   0.27463   0.33454 
H          H       0.33061   0.07438   0.05932 
H          H       0.33061   0.92562   0.05932 
H          H       0.83061   0.57438   0.05932 
H          H       0.83061   0.42562   0.05932 
H          H       0.39764   0.03712   0.33401 
H          H       0.39764   0.96288   0.33401 
H          H       0.89764   0.53712   0.33401 
H          H       0.89764   0.46288   0.33401 
H          H       0.10088   0.03716   0.12504 
H          H       0.10088   0.96284   0.12504 
H          H       0.60088   0.53716   0.12504 
H          H       0.60088   0.46284   0.12504 
H          H       0.16899   0.07450   0.40030 
H          H       0.16899   0.92550   0.40030 
H          H       0.66899   0.57450   0.40030 
H          H       0.66899   0.42550   0.40030 
H          H       0.17958   0.09210   0.22196 
H          H       0.17958   0.90790   0.22196 
H          H       0.67958   0.59210   0.22196 
H          H       0.67958   0.40790   0.22196 
H          H       0.24983   0.20440   0.22692 
H          H       0.24983   0.79560   0.22692 
H          H       0.74983   0.70440   0.22692 
H          H       0.74983   0.29560   0.22692 
H          H       0.32418   0.09294   0.24117 
H          H       0.32418   0.90706   0.24117 
H          H       0.82418   0.59294   0.24117 
H          H       0.82418   0.40706   0.24117 
H          H       0.16619   0.20734   0.19888 
H          H       0.16619   0.79266   0.19888 
H          H       0.66619   0.70734   0.19888 
H          H       0.66619   0.29266   0.19888 
H          H       0.31908   0.20829   0.20412 
H          H       0.31908   0.79171   0.20412 
H          H       0.81908   0.70829   0.20412 
H          H       0.81908   0.29171   0.20412 
C          C       0.44645   0.12825   0.20732 
C          C       0.44645   0.87175   0.20732 
C          C       0.94645   0.62825   0.20732 
C          C       0.94645   0.37175   0.20732 
H          H       0.51138   0.18508   0.21544 
H          H       0.51138   0.81492   0.21544 
H          H       0.01138   0.68508   0.21544 
H          H       0.01138   0.31492   0.21544 
H          H       0.48007   0.28469   0.38442 
H          H       0.48007   0.71531   0.38442 
H          H       0.98007   0.78469   0.38442 
H          H       0.98007   0.21531   0.38442 
H          H       0.41479   0.24177   0.37832 
H          H       0.41479   0.75823   0.37832 
H          H       0.91479   0.74177   0.37832 
H          H       0.91479   0.25823   0.37832 
C          C       0.03159   0.12642   0.17110 
C          C       0.03159   0.87358   0.17110 
C          C       0.53159   0.62642   0.17110 
C          C       0.53159   0.37358   0.17110 
H          H       0.97768   0.18187   0.20097 
H          H       0.97768   0.81813   0.20097 
H          H       0.47768   0.68187   0.20097 
H          H       0.47768   0.31813   0.20097 
H          H       0.11043   0.28005   0.39349 
H          H       0.11043   0.71995   0.39349 
H          H       0.61043   0.78005   0.39349 
H          H       0.61043   0.21995   0.39349 
H          H       0.16990   0.23801   0.37811 
H          H       0.16990   0.76199   0.37811 
H          H       0.66990   0.73801   0.37811 
H          H       0.66990   0.26199   0.37811 
H          H       0.46655   0.10958   0.31933 
H          H       0.46655   0.89042   0.31933 
H          H       0.96655   0.60958   0.31933 
H          H       0.96655   0.39042   0.31933 
H          H       0.47295   0.12022   0.17999 
H          H       0.47295   0.87978   0.17999 
H          H       0.97295   0.62022   0.17999 
H          H       0.97295   0.37978   0.17999 
H          H       0.39344   0.12120   0.08854 
H          H       0.39344   0.87880   0.08854 
H          H       0.89344   0.62120   0.08854 
H          H       0.89344   0.37880   0.08854 
H          H       0.05994   0.11001   0.16125 
H          H       0.05994   0.88999   0.16125 
H          H       0.55994   0.61001   0.16125 
H          H       0.55994   0.38999   0.16125 
H          H       0.97853   0.12593   0.03873 
H          H       0.97853   0.87407   0.03873 
H          H       0.47853   0.62593   0.03873 
H          H       0.47853   0.37407   0.03873 
H          H       0.03758   0.11016   0.26636 
H          H       0.03758   0.88984   0.26636 
H          H       0.53758   0.61016   0.26636 
H          H       0.53758   0.38984   0.26636 
C          C       0.29089   0.02140   0.89354 
C          C       0.29089   0.97860   0.89354 
C          C       0.79089   0.52140   0.89354 
C          C       0.79089   0.47860   0.89354 
C          C       0.32970   0.04194   0.55434 
C          C       0.32970   0.95806   0.55434 
C          C       0.82970   0.54194   0.55434 
C          C       0.82970   0.45806   0.55434 
C          C       0.36790   0.02092   0.71159 
C          C       0.36790   0.97908   0.71159 
C          C       0.86790   0.52092   0.71159 
C          C       0.86790   0.47908   0.71159 
N          N       0.25182   0.04352   0.73086 
N          N       0.25182   0.95648   0.73086 
N          N       0.75182   0.54352   0.73086 
N          N       0.75182   0.45648   0.73086 
C          C       0.21154   0.02141   0.56748 
C          C       0.21154   0.97859   0.56748 
C          C       0.71154   0.52141   0.56748 
C          C       0.71154   0.47859   0.56748 
C          C       0.13173   0.02093   0.74801 
C          C       0.13173   0.97907   0.74801 
C          C       0.63173   0.52093   0.74801 
C          C       0.63173   0.47907   0.74801 
C          C       0.17093   0.04199   0.90576 
C          C       0.17093   0.95801   0.90576 
C          C       0.67093   0.54199   0.90576 
C          C       0.67093   0.45801   0.90576 
C          C       0.25164   0.08729   0.73067 
C          C       0.25164   0.91271   0.73067 
C          C       0.75164   0.58729   0.73067 
C          C       0.75164   0.41271   0.73067 
C          C       0.21092   0.10856   0.72642 
C          C       0.21092   0.89144   0.72642 
C          C       0.71092   0.60856   0.72642 
C          C       0.71092   0.39144   0.72642 
C          C       0.21046   0.15094   0.72603 
C          C       0.21046   0.84906   0.72603 
C          C       0.71046   0.65094   0.72603 
C          C       0.71046   0.34906   0.72603 
C          C       0.25013   0.17172   0.72706 
C          C       0.25013   0.82828   0.72706 
C          C       0.75013   0.67172   0.72706 
C          C       0.75013   0.32828   0.72706 
C          C       0.29113   0.15145   0.73180 
C          C       0.29113   0.84855   0.73180 
C          C       0.79113   0.65145   0.73180 
C          C       0.79113   0.34855   0.73180 
C          C       0.29203   0.10901   0.73443 
C          C       0.29203   0.89099   0.73443 
C          C       0.79203   0.60901   0.73443 
C          C       0.79203   0.39099   0.73443 
C          C       0.17017   0.17543   0.72524 
C          C       0.17017   0.82457   0.72524 
C          C       0.67017   0.67543   0.72524 
C          C       0.67017   0.32457   0.72524 
C          C       0.33170   0.17662   0.73490 
C          C       0.33170   0.82338   0.73490 
C          C       0.83170   0.67662   0.73490 
C          C       0.83170   0.32338   0.73490 
N          N       0.38120   0.16277   0.77480 
N          N       0.38120   0.83723   0.77480 
N          N       0.88120   0.66277   0.77480 
N          N       0.88120   0.33723   0.77480 
C          C       0.42301   0.18812   0.78812 
C          C       0.42301   0.81188   0.78812 
C          C       0.92301   0.68812   0.78812 
C          C       0.92301   0.31188   0.78812 
C          C       0.45382   0.17210   0.75123 
C          C       0.45382   0.82790   0.75123 
C          C       0.95382   0.67210   0.75123 
C          C       0.95382   0.32790   0.75123 
C          C       0.49076   0.19742   0.75253 
C          C       0.49076   0.80258   0.75253 
C          C       0.99076   0.69742   0.75253 
C          C       0.99076   0.30258   0.75253 
C          C       0.49994   0.23852   0.79700 
C          C       0.49994   0.76148   0.79700 
C          C       0.99994   0.73852   0.79700 
C          C       0.99994   0.26148   0.79700 
C          C       0.47217   0.25366   0.84331 
C          C       0.47217   0.74634   0.84331 
C          C       0.97217   0.75366   0.84331 
C          C       0.97217   0.24634   0.84331 
C          C       0.43437   0.22891   0.83911 
C          C       0.43437   0.77109   0.83911 
C          C       0.93437   0.72891   0.83911 
C          C       0.93437   0.27109   0.83911 
N          N       0.14174   0.16068   0.75933 
N          N       0.14174   0.83932   0.75933 
N          N       0.64174   0.66068   0.75933 
N          N       0.64174   0.33932   0.75933 
C          C       0.10728   0.18532   0.77347 
C          C       0.10728   0.81468   0.77347 
C          C       0.60728   0.68532   0.77347 
C          C       0.60728   0.31468   0.77347 
C          C       0.05413   0.16934   0.73088 
C          C       0.05413   0.83066   0.73088 
C          C       0.55413   0.66934   0.73088 
C          C       0.55413   0.33066   0.73088 
C          C       0.01986   0.19415   0.74035 
C          C       0.01986   0.80585   0.74035 
C          C       0.51986   0.69415   0.74035 
C          C       0.51986   0.30585   0.74035 
C          C       0.03821   0.23467   0.79457 
C          C       0.03821   0.76533   0.79457 
C          C       0.53821   0.73467   0.79457 
C          C       0.53821   0.26533   0.79457 
C          C       0.09308   0.24959   0.84449 
C          C       0.09308   0.75041   0.84449 
C          C       0.59308   0.74959   0.84449 
C          C       0.59308   0.25041   0.84449 
C          C       0.12709   0.22537   0.83454 
C          C       0.12709   0.77463   0.83454 
C          C       0.62709   0.72537   0.83454 
C          C       0.62709   0.27463   0.83454 
H          H       0.33061   0.07438   0.55932 
H          H       0.33061   0.92562   0.55932 
H          H       0.83061   0.57438   0.55932 
H          H       0.83061   0.42562   0.55932 
H          H       0.39764   0.03712   0.83401 
H          H       0.39764   0.96288   0.83401 
H          H       0.89764   0.53712   0.83401 
H          H       0.89764   0.46288   0.83401 
H          H       0.10088   0.03716   0.62504 
H          H       0.10088   0.96284   0.62504 
H          H       0.60088   0.53716   0.62504 
H          H       0.60088   0.46284   0.62504 
H          H       0.16899   0.07450   0.90030 
H          H       0.16899   0.92550   0.90030 
H          H       0.66899   0.57450   0.90030 
H          H       0.66899   0.42550   0.90030 
H          H       0.17958   0.09210   0.72196 
H          H       0.17958   0.90790   0.72196 
H          H       0.67958   0.59210   0.72196 
H          H       0.67958   0.40790   0.72196 
H          H       0.24983   0.20440   0.72692 
H          H       0.24983   0.79560   0.72692 
H          H       0.74983   0.70440   0.72692 
H          H       0.74983   0.29560   0.72692 
H          H       0.32418   0.09294   0.74117 
H          H       0.32418   0.90706   0.74117 
H          H       0.82418   0.59294   0.74117 
H          H       0.82418   0.40706   0.74117 
H          H       0.16619   0.20734   0.69888 
H          H       0.16619   0.79266   0.69888 
H          H       0.66619   0.70734   0.69888 
H          H       0.66619   0.29266   0.69888 
H          H       0.31908   0.20829   0.70412 
H          H       0.31908   0.79171   0.70412 
H          H       0.81908   0.70829   0.70412 
H          H       0.81908   0.29171   0.70412 
C          C       0.44645   0.12825   0.70732 
C          C       0.44645   0.87175   0.70732 
C          C       0.94645   0.62825   0.70732 
C          C       0.94645   0.37175   0.70732 
H          H       0.51138   0.18508   0.71545 
H          H       0.51138   0.81492   0.71545 
H          H       0.01138   0.68508   0.71545 
H          H       0.01138   0.31492   0.71545 
H          H       0.48007   0.28469   0.88442 
H          H       0.48007   0.71531   0.88442 
H          H       0.98007   0.78469   0.88442 
H          H       0.98007   0.21531   0.88442 
H          H       0.41479   0.24177   0.87832 
H          H       0.41479   0.75823   0.87832 
H          H       0.91479   0.74177   0.87832 
H          H       0.91479   0.25823   0.87832 
C          C       0.03159   0.12642   0.67110 
C          C       0.03159   0.87358   0.67110 
C          C       0.53159   0.62642   0.67110 
C          C       0.53159   0.37358   0.67110 
H          H       0.97768   0.18187   0.70098 
H          H       0.97768   0.81813   0.70098 
H          H       0.47768   0.68187   0.70098 
H          H       0.47768   0.31813   0.70098 
H          H       0.11043   0.28005   0.89349 
H          H       0.11043   0.71995   0.89349 
H          H       0.61043   0.78005   0.89349 
H          H       0.61043   0.21995   0.89349 
H          H       0.16990   0.23801   0.87811 
H          H       0.16990   0.76199   0.87811 
H          H       0.66990   0.73801   0.87811 
H          H       0.66990   0.26199   0.87811 
H          H       0.46655   0.10958   0.81933 
H          H       0.46655   0.89042   0.81933 
H          H       0.96655   0.60958   0.81933 
H          H       0.96655   0.39042   0.81933 
H          H       0.47295   0.12022   0.68000 
H          H       0.47295   0.87978   0.68000 
H          H       0.97295   0.62022   0.68000 
H          H       0.97295   0.37978   0.68000 
H          H       0.39344   0.12120   0.58854 
H          H       0.39344   0.87880   0.58854 
H          H       0.89344   0.62120   0.58854 
H          H       0.89344   0.37880   0.58854 
H          H       0.05994   0.11001   0.66125 
H          H       0.05994   0.88999   0.66125 
H          H       0.55994   0.61001   0.66125 
H          H       0.55994   0.38999   0.66125 
H          H       0.97853   0.12593   0.53873 
H          H       0.97853   0.87407   0.53873 
H          H       0.47853   0.62593   0.53873 
H          H       0.47853   0.37407   0.53873 
H          H       0.03758   0.11016   0.76636 
H          H       0.03758   0.88984   0.76636 
H          H       0.53758   0.61016   0.76636 
H          H       0.53758   0.38984   0.76636 
