data_crystal
 
_cell_length_a    29.62480
_cell_length_b    29.62480
_cell_length_c    6.26071
_cell_angle_alpha 90.00000
_cell_angle_beta  90.00000
_cell_angle_gamma 120.00000
 
_space_group_name_Hall 'P 1'
_space_group_name_H-M_alt  'P 1'
 
loop_
_symmetry_equiv_pos_as_xyz
 'x,y,z' 
 
loop_
_atom_site_label
_atom_site_type_symbol
_atom_site_fract_x
_atom_site_fract_y
_atom_site_fract_z
C          C       0.27580   0.64230   0.84408 
C          C       0.30237   0.61135   0.84165 
C          C       0.36020   0.63795   0.85374 
C          C       0.39137   0.69532   0.86774 
C          C       0.36454   0.72626   0.87078 
C          C       0.30681   0.69986   0.85734 
O          O       0.28547   0.72581   0.85947 
O          O       0.27617   0.56426   0.82891 
O          O       0.43873   0.71632   0.87765 
C          C       0.38661   0.61108   0.85307 
C          C       0.22240   0.61571   0.83628 
C          C       0.39127   0.77928   0.88850 
N          N       0.36387   0.55803   0.85057 
C          C       0.39549   0.53485   0.85589 
N          N       0.19081   0.63713   0.83249 
N          N       0.44438   0.81018   0.90667 
C          C       0.37618   0.48569   0.95179 
C          C       0.40651   0.46259   0.96509 
C          C       0.45848   0.48745   0.88490 
C          C       0.47610   0.53566   0.77898 
C          C       0.44595   0.55881   0.76622 
C          C       0.49308   0.46740   0.92108 
C          C       0.47499   0.41357   0.94884 
C          C       0.50884   0.39508   0.98346 
C          C       0.56317   0.42941   0.99555 
C          C       0.58159   0.48298   0.97253 
C          C       0.54792   0.50132   0.93551 
N          N       0.60116   0.41455   0.02925 
C          C       0.59062   0.36427   0.01941 
C          C       0.62814   0.35007   0.02125 
C          C       0.61065   0.29404   0.00867 
C          C       0.64961   0.27632   0.00754 
C          C       0.70601   0.31473   0.02064 
C          C       0.72365   0.37118   0.03358 
C          C       0.68485   0.38878   0.03491 
O          O       0.56408   0.26309   0.00128 
O          O       0.70033   0.43510   0.04670 
O          O       0.73705   0.29919   0.01994 
C          C       0.77538   0.40844   0.04378 
N          N       0.81546   0.39802   0.03629 
C          C       0.86867   0.43714   0.03914 
C          C       0.63508   0.22482   0.99496 
N          N       0.58476   0.18556   0.96690 
C          C       0.56969   0.13266   0.99290 
C          C       0.90531   0.42296   0.97253 
C          C       0.95781   0.45852   0.97227 
C          C       0.97754   0.51088   0.04128 
C          C       0.94007   0.52440   0.11163 
C          C       0.88735   0.48845   0.10675 
C          C       0.52166   0.09504   0.90494 
C          C       0.50432   0.04293   0.92886 
C          C       0.53308   0.02477   0.04956 
C          C       0.58125   0.06346   0.13864 
C          C       0.59903   0.11557   0.10740 
C          C       0.03152   0.54615   0.02235 
C          C       0.51382   0.97079   0.06443 
C          C       0.46158   0.93501   0.12581 
C          C       0.43899   0.88309   0.07294 
C          C       0.46707   0.86292   0.96924 
C          C       0.52042   0.89691   0.92914 
C          C       0.54334   0.94910   0.97664 
C          C       0.07012   0.53563   0.10463 
C          C       0.12124   0.56442   0.03741 
C          C       0.13813   0.60703   0.89956 
C          C       0.10127   0.62061   0.83097 
C          C       0.04956   0.59104   0.88911 
C          C       0.95627   0.57747   0.19023 
C          C       0.05675   0.49211   0.25552 
O          O       0.99973   0.59752   0.31574 
O          O       0.93517   0.60268   0.15897 
O          O       0.01966   0.48588   0.40062 
O          O       0.07534   0.46404   0.26511 
C          C       0.61325   0.04846   0.27274 
C          C       0.42844   0.95273   0.23323 
O          O       0.65737   0.05767   0.24347 
O          O       0.58660   0.02199   0.45072 
O          O       0.38227   0.93644   0.21051 
O          O       0.45565   0.99157   0.37697 
C          C       0.94063   0.97366   0.17600 
C          C       0.96732   0.94282   0.17418 
C          C       0.02516   0.96956   0.18621 
C          C       0.05622   0.02696   0.19956 
C          C       0.02925   0.05775   0.20202 
C          C       0.97152   0.03122   0.18872 
O          O       0.95007   0.05707   0.19066 
O          O       0.94120   0.89572   0.16185 
O          O       0.10359   0.04808   0.20935 
C          C       0.05170   0.94282   0.18608 
C          C       0.88725   0.94700   0.16822 
C          C       0.05581   0.11079   0.21889 
N          N       0.02907   0.88977   0.18452 
C          C       0.06078   0.86670   0.19015 
N          N       0.85567   0.96842   0.16285 
N          N       0.10889   0.14188   0.23744 
C          C       0.04161   0.81764   0.28680 
C          C       0.07201   0.79463   0.30024 
C          C       0.12392   0.81948   0.21941 
C          C       0.14142   0.86760   0.11292 
C          C       0.11118   0.89066   0.09999 
C          C       0.15857   0.79949   0.25527 
C          C       0.14053   0.74567   0.28328 
C          C       0.17442   0.72722   0.31779 
C          C       0.22875   0.76158   0.32946 
C          C       0.24714   0.81513   0.30600 
C          C       0.21343   0.83343   0.26911 
N          N       0.26675   0.74673   0.36322 
C          C       0.25618   0.69644   0.35363 
C          C       0.29366   0.68218   0.35606 
C          C       0.27614   0.62615   0.34349 
C          C       0.31503   0.60836   0.34282 
C          C       0.37142   0.64670   0.35681 
C          C       0.38911   0.70315   0.36985 
C          C       0.35037   0.72082   0.37037 
O          O       0.22954   0.59525   0.33579 
O          O       0.36588   0.76717   0.38216 
O          O       0.40244   0.63111   0.35654 
C          C       0.44083   0.74037   0.38084 
N          N       0.48091   0.72993   0.37498 
C          C       0.53413   0.76904   0.37847 
C          C       0.30043   0.55685   0.32979 
N          N       0.25013   0.51776   0.29967 
C          C       0.23492   0.46479   0.32350 
C          C       0.57088   0.75460   0.31649 
C          C       0.62338   0.79017   0.31676 
C          C       0.64298   0.84285   0.38087 
C          C       0.60540   0.85661   0.44692 
C          C       0.55270   0.82060   0.44208 
C          C       0.18749   0.42749   0.23014 
C          C       0.16999   0.37530   0.25205 
C          C       0.19785   0.35674   0.37642 
C          C       0.24547   0.39511   0.47069 
C          C       0.26351   0.44732   0.44116 
C          C       0.69689   0.87819   0.35984 
C          C       0.17817   0.30270   0.39122 
C          C       0.12556   0.26716   0.44863 
C          C       0.10303   0.21517   0.39721 
C          C       0.13143   0.19469   0.29861 
C          C       0.18501   0.22848   0.26229 
C          C       0.20792   0.28073   0.30860 
C          C       0.73580   0.86840   0.44428 
C          C       0.78676   0.89691   0.37487 
C          C       0.80317   0.93861   0.23234 
C          C       0.76604   0.95156   0.16130 
C          C       0.71448   0.92221   0.22179 
C          C       0.62137   0.91002   0.52015 
C          C       0.72291   0.82586   0.59990 
O          O       0.66503   0.93107   0.64460 
O          O       0.59991   0.93476   0.48557 
O          O       0.68586   0.82020   0.74412 
O          O       0.74183   0.79815   0.61373 
C          C       0.27644   0.37963   0.60879 
C          C       0.09209   0.28525   0.55045 
O          O       0.32099   0.38952   0.58666 
O          O       0.24816   0.35170   0.78135 
O          O       0.04623   0.26955   0.52144 
O          O       0.11856   0.32367   0.69667 
C          C       0.60876   0.30925   0.50904 
C          C       0.63543   0.27839   0.50630 
C          C       0.69327   0.30511   0.51767 
C          C       0.72435   0.36250   0.53124 
C          C       0.69741   0.39333   0.53475 
C          C       0.63967   0.36681   0.52208 
O          O       0.61824   0.39268   0.52466 
O          O       0.60930   0.23130   0.49392 
O          O       0.77172   0.38359   0.54046 
C          C       0.71980   0.27835   0.51679 
C          C       0.55537   0.28258   0.50176 
C          C       0.72404   0.44635   0.55218 
N          N       0.69716   0.22531   0.51469 
C          C       0.72888   0.20224   0.52144 
N          N       0.52372   0.30394   0.49824 
N          N       0.77715   0.47734   0.56962 
C          C       0.70953   0.15313   0.61782 
C          C       0.73991   0.13011   0.63252 
C          C       0.79198   0.15504   0.55341 
C          C       0.80967   0.20323   0.44715 
C          C       0.77944   0.22626   0.43282 
C          C       0.82656   0.13501   0.59034 
C          C       0.80849   0.08112   0.61620 
C          C       0.84235   0.06261   0.65003 
C          C       0.89666   0.09697   0.66352 
C          C       0.91504   0.15058   0.64281 
C          C       0.88137   0.16895   0.60648 
N          N       0.93466   0.08209   0.69636 
C          C       0.92409   0.03180   0.68639 
C          C       0.96157   0.01754   0.68879 
C          C       0.94400   0.96150   0.67621 
C          C       0.98288   0.94369   0.67592 
C          C       0.03930   0.98203   0.68956 
C          C       0.05702   0.03851   0.70236 
C          C       0.01829   0.05620   0.70309 
O          O       0.89742   0.93063   0.66812 
O          O       0.03381   0.10252   0.71489 
O          O       0.07027   0.96642   0.68945 
C          C       0.10877   0.07570   0.71302 
N          N       0.14878   0.06517   0.70584 
C          C       0.20202   0.10419   0.70970 
C          C       0.96827   0.89217   0.66361 
N          N       0.91792   0.85297   0.63554 
C          C       0.90283   0.80003   0.65955 
C          C       0.23863   0.09001   0.64271 
C          C       0.29115   0.12550   0.64326 
C          C       0.31091   0.17779   0.71333 
C          C       0.27348   0.19126   0.78464 
C          C       0.22073   0.15540   0.77882 
C          C       0.85476   0.76261   0.57112 
C          C       0.83736   0.71044   0.59324 
C          C       0.86608   0.69202   0.71259 
C          C       0.91432   0.73051   0.80191 
C          C       0.93216   0.78267   0.77245 
C          C       0.36484   0.21313   0.69348 
C          C       0.84666   0.63800   0.72654 
C          C       0.79439   0.60228   0.78773 
C          C       0.77176   0.55034   0.73509 
C          C       0.79982   0.53010   0.63182 
C          C       0.85319   0.56405   0.59179 
C          C       0.87614   0.61625   0.63895 
C          C       0.40362   0.20273   0.77469 
C          C       0.45461   0.23148   0.70590 
C          C       0.47120   0.27391   0.56725 
C          C       0.43419   0.28739   0.49973 
C          C       0.38260   0.25789   0.55969 
C          C       0.28975   0.24422   0.86491 
C          C       0.39053   0.15934   0.92592 
O          O       0.33334   0.26409   0.98962 
O          O       0.26864   0.26949   0.83561 
O          O       0.35352   0.15307   0.07156 
O          O       0.40926   0.13140   0.93535 
C          C       0.94630   0.71521   0.93454 
C          C       0.76130   0.62008   0.89503 
O          O       0.99050   0.72466   0.90518 
O          O       0.91953   0.68810   0.11120 
O          O       0.71520   0.60405   0.87134 
O          O       0.78846   0.65865   0.03989 
H          H       0.42904   0.63147   0.85877 
H          H       0.20055   0.57344   0.83069 
H          H       0.37055   0.80090   0.88896 
H          H       0.32661   0.53410   0.88958 
H          H       0.20312   0.67458   0.80518 
H          H       0.46989   0.79808   0.88082 
H          H       0.33662   0.46580   0.02106 
H          H       0.39050   0.42533   0.04973 
H          H       0.51545   0.55648   0.70934 
H          H       0.46203   0.59621   0.68168 
H          H       0.43301   0.38533   0.93987 
H          H       0.49201   0.35290   0.00304 
H          H       0.62379   0.51081   0.98315 
H          H       0.56463   0.54352   0.92051 
H          H       0.63736   0.44498   0.03102 
H          H       0.54940   0.33557   0.00863 
H          H       0.78765   0.44945   0.05537 
H          H       0.81032   0.36295   0.00249 
H          H       0.66350   0.21181   0.00131 
H          H       0.55550   0.19132   0.92480 
H          H       0.89186   0.38306   0.91686 
H          H       0.98498   0.44627   0.91309 
H          H       0.85944   0.49998   0.16406 
H          H       0.49790   0.10731   0.81292 
H          H       0.46733   0.01477   0.85281 
H          H       0.63605   0.14438   0.18161 
H          H       0.39812   0.85661   0.11848 
H          H       0.54398   0.88200   0.85392 
H          H       0.58383   0.97497   0.92542 
H          H       0.14997   0.55446   0.09896 
H          H       0.11336   0.65419   0.72412 
H          H       0.02122   0.60054   0.81961 
H          H       0.01326   0.57433   0.33223 
H          H       0.00771   0.51029   0.38164 
H          H       0.55201   0.01718   0.45747 
H          H       0.49186   0.00143   0.38538 
H          H       0.09413   0.96330   0.19159 
H          H       0.86538   0.90471   0.16385 
H          H       0.03493   0.13224   0.21819 
H          H       0.99183   0.86582   0.22379 
H          H       0.86798   0.00581   0.13394 
H          H       0.13449   0.12978   0.21417 
H          H       0.00209   0.79776   0.35646 
H          H       0.05611   0.75743   0.38534 
H          H       0.18072   0.88840   0.04281 
H          H       0.12715   0.92798   0.01491 
H          H       0.09855   0.71741   0.27467 
H          H       0.15761   0.68506   0.33764 
H          H       0.28934   0.84298   0.31617 
H          H       0.23010   0.87562   0.25380 
H          H       0.30295   0.77716   0.36499 
H          H       0.21496   0.66776   0.34248 
H          H       0.45308   0.78137   0.39207 
H          H       0.47580   0.69479   0.34305 
H          H       0.32874   0.54370   0.33711 
H          H       0.22114   0.52371   0.25499 
H          H       0.55753   0.71449   0.26407 
H          H       0.65063   0.77771   0.26081 
H          H       0.52474   0.83239   0.49599 
H          H       0.16436   0.44008   0.13551 
H          H       0.13348   0.34740   0.17223 
H          H       0.30001   0.47592   0.51941 
H          H       0.06191   0.18895   0.44004 
H          H       0.20881   0.21334   0.19118 
H          H       0.24872   0.30641   0.26081 
H          H       0.81579   0.88758   0.43823 
H          H       0.77777   0.98442   0.05066 
H          H       0.68589   0.93110   0.15039 
H          H       0.67886   0.90819   0.66400 
H          H       0.67362   0.84428   0.72163 
H          H       0.21338   0.34646   0.78274 
H          H       0.15456   0.33304   0.71003 
H          H       0.76223   0.29884   0.52205 
H          H       0.53356   0.24030   0.49639 
H          H       0.70324   0.46788   0.55294 
H          H       0.65992   0.20135   0.55380 
H          H       0.53599   0.34138   0.47101 
H          H       0.80268   0.46528   0.54371 
H          H       0.66989   0.13320   0.68629 
H          H       0.72386   0.09285   0.71726 
H          H       0.84911   0.22406   0.37829 
H          H       0.79556   0.26361   0.34790 
H          H       0.76653   0.05287   0.60579 
H          H       0.82553   0.02040   0.66772 
H          H       0.95721   0.17842   0.65475 
H          H       0.89803   0.21117   0.59292 
H          H       0.97086   0.11252   0.69907 
H          H       0.88287   0.00313   0.67510 
H          H       0.12112   0.11672   0.72468 
H          H       0.14358   0.03010   0.67152 
H          H       0.99664   0.87911   0.67031 
H          H       0.88872   0.85881   0.59324 
H          H       0.22515   0.05018   0.58598 
H          H       0.31830   0.11330   0.58340 
H          H       0.19282   0.16689   0.83652 
H          H       0.83101   0.77508   0.48024 
H          H       0.80033   0.68245   0.51705 
H          H       0.96922   0.81131   0.84687 
H          H       0.73087   0.52391   0.78058 
H          H       0.87673   0.54907   0.51692 
H          H       0.91666   0.64207   0.58798 
H          H       0.48349   0.22166   0.76674 
H          H       0.44605   0.32084   0.39230 
H          H       0.35412   0.26729   0.49097 
H          H       0.34688   0.24086   0.00461 
H          H       0.34144   0.17738   0.05269 
H          H       0.88489   0.68316   0.11819 
H          H       0.82461   0.66829   0.04897 
