data_crystal
 
_cell_length_a    51.71000
_cell_length_b    25.89000
_cell_length_c    8.61000
_cell_angle_alpha 90.68000
_cell_angle_beta  91.38000
_cell_angle_gamma 59.26000
 
_symmetry_space_group_name_Hall 'P 1'
_symmetry_space_group_name_H-M  'P 1'
 
loop_
_symmetry_equiv_pos_as_xyz
 'x,y,z' 
 
loop_
_atom_site_label
_atom_site_type_symbol
_atom_site_fract_x
_atom_site_fract_y
_atom_site_fract_z
C          C       0.59195   0.97541   0.00519 
C          C       0.62277   0.95819   0.99668 
C          C       0.63085   0.00240   0.00471 
C          C       0.60834   0.06420   0.01648 
C          C       0.57792   0.08089   0.02336 
C          C       0.56978   0.03607   0.02243 
C          C       0.62329   0.09955   0.01250 
C          C       0.65458   0.05949   0.99925 
C          C       0.61221   0.16168   0.01435 
C          C       0.67450   0.07999   0.98238 
C          C       0.63218   0.18236   0.99769 
H          H       0.58815   0.19446   0.02413 
C          C       0.66319   0.14240   0.97838 
H          H       0.69868   0.04823   0.96831 
H          H       0.62378   0.23080   0.99527 
C          C       0.64042   0.89306   0.96812 
C          C       0.62018   0.87180   0.95258 
C          C       0.67140   0.85240   0.95265 
C          C       0.63000   0.81210   0.91861 
C          C       0.68135   0.79235   0.91960 
H          H       0.68810   0.86612   0.96824 
C          C       0.66104   0.77161   0.90156 
H          H       0.61398   0.79624   0.90737 
H          H       0.70546   0.75988   0.90755 
C          C       0.53693   0.06588   0.03279 
C          C       0.51729   0.04385   0.04782 
C          C       0.52502   0.12853   0.02967 
C          C       0.48648   0.08446   0.05487 
H          H       0.52537   0.99578   0.05499 
C          C       0.49428   0.16923   0.03572 
C          C       0.47463   0.14693   0.04732 
H          H       0.47069   0.06829   0.06527 
H          H       0.48535   0.21787   0.03145 
C          C       0.66183   0.99494   0.99374 
C          C       0.58820   0.92134   0.98242 
H          H       0.70806   0.41683   0.85916 
C          C       0.78185   0.37884   0.86786 
H          H       0.79573   0.39963   0.86998 
C          C       0.73660   0.48158   0.86102 
C          C       0.75334   0.50790   0.81657 
C          C       0.70692   0.51977   0.91030 
C          C       0.74106   0.56974   0.82102 
H          H       0.77650   0.47961   0.77735 
C          C       0.69434   0.58180   0.91443 
H          H       0.69358   0.50057   0.94971 
C          C       0.71126   0.60764   0.86864 
H          H       0.75444   0.58937   0.78568 
H          H       0.67149   0.61034   0.95787 
C          C       0.82896   0.27838   0.87869 
C          C       0.84699   0.30206   0.83582 
C          C       0.84351   0.21776   0.92520 
C          C       0.87824   0.26742   0.84317 
H          H       0.83649   0.34854   0.79457 
C          C       0.87472   0.18250   0.93022 
H          H       0.83023   0.19780   0.95974 
C          C       0.89261   0.20698   0.89201 
H          H       0.89150   0.28740   0.80852 
H          H       0.88569   0.13550   0.96792 
N          N       0.70049   0.66925   0.87928 
N          N       0.92385   0.16880   0.90227 
C          C       0.29739   0.31497   0.01464 
C          C       0.27885   0.29009   0.00429 
C          C       0.28443   0.37742   0.00518 
C          C       0.24760   0.32695   0.98186 
H          H       0.28893   0.24141   0.01774 
C          C       0.25324   0.41538   0.98278 
H          H       0.29917   0.39624   0.01409 
C          C       0.23519   0.38933   0.96861 
H          H       0.21096   0.41800   0.94526 
C          C       0.24004   0.48096   0.97572 
C          C       0.20873   0.52039   0.98525 
C          C       0.25846   0.50622   0.96397 
C          C       0.19621   0.58233   0.98064 
H          H       0.19373   0.50252   0.99914 
C          C       0.24620   0.56802   0.95999 
H          H       0.28294   0.47724   0.95675 
C          C       0.21484   0.60699   0.96585 
H          H       0.17181   0.61172   0.99217 
H          H       0.26083   0.58692   0.94979 
C          C       0.22831   0.30038   0.97519 
C          C       0.19741   0.33531   0.00680 
C          C       0.04992   0.14375   0.95428 
C          C       0.94193   0.18939   0.90823 
C          C       0.18275   0.16934   0.00759 
H          H       0.93395   0.23855   0.90576 
H          H       0.20691   0.13736   0.04028 
H          H       0.15965   0.69285   0.89485 
C          C       0.63706   0.01607   0.48527 
C          C       0.66826   0.99688   0.48610 
C          C       0.67719   0.03983   0.49104 
C          C       0.65525   0.10215   0.49931 
C          C       0.62454   0.12081   0.49753 
C          C       0.61533   0.07760   0.48763 
C          C       0.67100   0.13592   0.51085 
C          C       0.70224   0.09451   0.50602 
C          C       0.66097   0.19741   0.52546 
C          C       0.72328   0.11273   0.51269 
C          C       0.68192   0.21592   0.53251 
H          H       0.63715   0.23175   0.53093 
C          C       0.71301   0.17451   0.52516 
H          H       0.74749   0.07975   0.50758 
H          H       0.67449   0.26380   0.54281 
C          C       0.68561   0.93070   0.49515 
C          C       0.66511   0.91044   0.51038 
C          C       0.71655   0.88807   0.49327 
C          C       0.67462   0.84999   0.52947 
C          C       0.72617   0.82740   0.51081 
H          H       0.73346   0.90075   0.47587 
C          C       0.70569   0.80754   0.53090 
H          H       0.65825   0.83533   0.54247 
H          H       0.75027   0.79353   0.50919 
C          C       0.58230   0.10960   0.49105 
C          C       0.56142   0.09020   0.47962 
C          C       0.57158   0.17163   0.50799 
C          C       0.53085   0.13200   0.49332 
H          H       0.56833   0.04321   0.45837 
C          C       0.54109   0.21355   0.52187 
C          C       0.52031   0.19355   0.51679 
H          H       0.51427   0.11754   0.48588 
H          H       0.53318   0.26151   0.53724 
C          C       0.70869   0.03067   0.49455 
C          C       0.63294   0.96221   0.49729 
C          C       0.59731   0.18378   0.51164 
C          C       0.73387   0.19666   0.52444 
C          C       0.48817   0.23563   0.53530 
C          C       0.71693   0.74323   0.54613 
H          H       0.75833   0.16265   0.51023 
C          C       0.92544   0.30507   0.39335 
H          H       0.88234   0.38516   0.35704 
C          C       0.92487   0.22048   0.50891 
H          H       0.88143   0.23457   0.56486 
C          C       0.94118   0.24562   0.44983 
H          H       0.93770   0.32437   0.34027 
H          H       0.93697   0.17421   0.55275 
N          N       0.74539   0.70526   0.53724 
N          N       0.97249   0.20939   0.44371 
C          C       0.34394   0.36665   0.63433 
C          C       0.32578   0.34086   0.63376 
C          C       0.33061   0.42910   0.65157 
C          C       0.29440   0.37650   0.64870 
H          H       0.33652   0.29202   0.62079 
C          C       0.29923   0.46571   0.66203 
H          H       0.34464   0.44964   0.64902 
C          C       0.28142   0.43909   0.66078 
H          H       0.25703   0.46797   0.67342 
C          C       0.28483   0.53165   0.66909 
C          C       0.25618   0.56850   0.60049 
C          C       0.29942   0.55913   0.74169 
C          C       0.24266   0.63074   0.60156 
H          H       0.24463   0.54787   0.54157 
C          C       0.28603   0.62139   0.74362 
H          H       0.32154   0.53116   0.79820 
C          C       0.25747   0.65806   0.67318 
H          H       0.22082   0.65849   0.54228 
H          H       0.29756   0.64231   0.80106 
C          C       0.27553   0.34900   0.64369 
C          C       0.24428   0.38392   0.61467 
C          C       0.28838   0.28658   0.66325 
C          C       0.22682   0.35733   0.60109 
H          H       0.23340   0.43269   0.59948 
C          C       0.27113   0.25955   0.64837 
H          H       0.31249   0.25823   0.69062 
C          C       0.23995   0.29461   0.61531 
H          H       0.20256   0.38509   0.57692 
H          H       0.28223   0.21068   0.66258 
N          N       0.22089   0.27153   0.59317 
N          N       0.24613   0.71988   0.66281 
C          C       0.21764   0.75802   0.65024 
C          C       0.20688   0.82120   0.61810 
C          C       0.22753   0.84110   0.60723 
C          C       0.17606   0.86215   0.58923 
C          C       0.21815   0.90076   0.57380 
H          H       0.25152   0.80824   0.62658 
H          H       0.09823   0.19783   0.22123 
H          H       0.07473   0.26816   0.31267 
C          C       0.04411   0.18907   0.08361 
H          H       0.06494   0.18511   0.12957 
H          H       0.02923   0.23515   0.04217 
H          H       0.03319   0.18121   0.18034 
C          C       0.54802   0.18207   0.15882 
H          H       0.57034   0.17201   0.19851 
H          H       0.53444   0.22994   0.12993 
H          H       0.53753   0.17344   0.25600 
C          C       0.59737   0.21239   0.66746 
H          H       0.61707   0.21710   0.68464 
H          H       0.57707   0.25685   0.67760 
H          H       0.59777   0.18397   0.76166 
C          C       0.59389   0.22417   0.37526 
H          H       0.57118   0.26385   0.37161 
H          H       0.61000   0.23954   0.38274 
H          H       0.59768   0.19971   0.26559 
C          C       0.54666   0.17398   0.86577 
H          H       0.52465   0.21540   0.85622 
H          H       0.56407   0.18556   0.85315 
H          H       0.54850   0.14431   0.76970 
C          C       0.07526   0.91234   0.12133 
H          H       0.05251   0.95011   0.14011 
H          H       0.07426   0.87119   0.10991 
H          H       0.08897   0.90799   0.22498 
C          C       0.07289   0.92094   0.82758 
H          H       0.06705   0.88584   0.83223 
H          H       0.05230   0.96414   0.80676 
H          H       0.08735   0.91162   0.72760 
C          C       0.11494   0.98109   0.65187 
H          H       0.09141   0.01505   0.62771 
H          H       0.11617   0.93891   0.68231 
H          H       0.12260   0.99617   0.75271 
C          C       0.12394   0.95569   0.36546 
H          H       0.10999   0.93637   0.39188 
H          H       0.11079   0.99516   0.29148 
H          H       0.14291   0.92257   0.29713 
C          C       0.57752   0.90590   0.12995 
H          H       0.55979   0.94602   0.18692 
H          H       0.56904   0.87566   0.10288 
H          H       0.59626   0.88302   0.21370 
C          C       0.56784   0.92911   0.84208 
H          H       0.56451   0.89065   0.83201 
H          H       0.54582   0.97013   0.85044 
H          H       0.57808   0.93186   0.73505 
C          C       0.54980   0.14299   0.02052 
C          C       0.68321   0.16546   0.94974 
C          C       0.44209   0.18748   0.04698 
C          C       0.67204   0.70806   0.87406 
H          H       0.70771   0.13136   0.93749 
H          H       0.65462   0.69513   0.85241 
H          H       0.43334   0.23667   0.03232 
N          N       0.67269   0.22234   0.93491 
N          N       0.42457   0.16587   0.05626 
C          C       0.69184   0.24500   0.91432 
C          C       0.68110   0.29862   0.82958 
C          C       0.72067   0.21827   0.98525 
C          C       0.69892   0.32418   0.81406 
H          H       0.65872   0.31965   0.77359 
C          C       0.73817   0.24461   0.97078 
H          H       0.72895   0.17774   0.05648 
C          C       0.72767   0.29793   0.88530 
H          H       0.69046   0.36526   0.74487 
H          H       0.76021   0.22414   0.03045 
C          C       0.39331   0.20369   0.05117 
C          C       0.37607   0.18176   0.97947 
C          C       0.37875   0.26141   0.11831 
C          C       0.34494   0.21792   0.96891 
H          H       0.38747   0.13677   0.92754 
C          C       0.34754   0.29702   0.10867 
H          H       0.39194   0.27792   0.17996 
C          C       0.33024   0.27622   0.03209 
H          H       0.33175   0.20104   0.90893 
H          H       0.33634   0.34168   0.16268 
C          C       0.74618   0.32612   0.87569 
C          C       0.77770   0.29027   0.88156 
C          C       0.73269   0.38879   0.86414 
C          C       0.79588   0.31603   0.87565 
H          H       0.78808   0.24129   0.88662 
C          C       0.75037   0.41576   0.86269 
C          C       0.24039   0.23906   0.94043 
C          C       0.17932   0.30996   0.00477 
H          H       0.18736   0.38309   0.03554 
C          C       0.22253   0.21318   0.93874 
H          H       0.26423   0.21104   0.91161 
C          C       0.19176   0.24830   0.97362 
H          H       0.15539   0.33749   0.03209 
H          H       0.23239   0.16554   0.90852 
N          N       0.17261   0.22500   0.97452 
N          N       0.20389   0.66874   0.96723 
C          C       0.17606   0.70677   0.93362 
C          C       0.16419   0.77103   0.95103 
C          C       0.18373   0.79320   0.97782 
C          C       0.13285   0.81097   0.94830 
C          C       0.17269   0.85431   0.99996 
H          H       0.20807   0.76114   0.98029 
C          C       0.12196   0.87167   0.97283 
H          H       0.11744   0.79398   0.92925 
C          C       0.14142   0.89441   0.99677 
H          H       0.18875   0.86936   0.02042 
C          C       0.12285   0.96014   0.00753 
C          C       0.13057   0.00483   0.01623 
C          C       0.09206   0.97679   0.99275 
C          C       0.10780   0.06639   0.00081 
C          C       0.06942   0.03758   0.98525 
C          C       0.07751   0.08244   0.98506 
C          C       0.08932   0.92130   0.97738 
C          C       0.12249   0.10220   0.00029 
C          C       0.11136   0.16379   0.97826 
C          C       0.15376   0.06297   0.02331 
C          C       0.13149   0.18456   0.97860 
H          H       0.08735   0.19590   0.95932 
C          C       0.17372   0.08389   0.02994 
C          C       0.16252   0.14559   0.00591 
H          H       0.12332   0.23236   0.95943 
H          H       0.19786   0.05304   0.05292 
C          C       0.16149   0.99817   0.02763 
C          C       0.03654   0.06736   0.96655 
C          C       0.02494   0.12957   0.94781 
C          C       0.01646   0.04592   0.96696 
C          C       0.99434   0.17001   0.92672 
C          C       0.98577   0.08630   0.94551 
H          H       0.02411   0.99848   0.98577 
C          C       0.97433   0.14821   0.92475 
H          H       0.98575   0.21823   0.91211 
H          H       0.96975   0.07037   0.94608 
H          H       0.70003   0.72916   0.56451 
H          H       0.48087   0.28419   0.55227 
N          N       0.72357   0.25367   0.53345 
N          N       0.46943   0.21674   0.53105 
C          C       0.74248   0.27735   0.52825 
C          C       0.72919   0.33839   0.48757 
C          C       0.77354   0.24404   0.56437 
C          C       0.74657   0.36506   0.47963 
H          H       0.70503   0.36439   0.45932 
C          C       0.79074   0.27125   0.55726 
H          H       0.78416   0.19712   0.60236 
C          C       0.77767   0.33197   0.51392 
H          H       0.73582   0.41233   0.44474 
H          H       0.81473   0.24504   0.58955 
C          C       0.43872   0.25555   0.55607 
C          C       0.41806   0.24258   0.48246 
C          C       0.42801   0.30488   0.65846 
C          C       0.38742   0.27875   0.50872 
H          H       0.42623   0.20456   0.40170 
C          C       0.39728   0.34085   0.68397 
H          H       0.44395   0.31433   0.72033 
C          C       0.37656   0.32838   0.60975 
H          H       0.37151   0.26887   0.44830 
H          H       0.38918   0.37886   0.76489 
C          C       0.79597   0.36051   0.50631 
C          C       0.82728   0.32548   0.48910 
C          C       0.78236   0.42330   0.51521 
C          C       0.84499   0.35220   0.48199 
H          H       0.83803   0.27658   0.47752 
C          C       0.79964   0.45091   0.50847 
H          H       0.75805   0.45127   0.53265 
C          C       0.83094   0.41504   0.49302 
H          H       0.84449   0.43656   0.48876 
C          C       0.78503   0.51687   0.51880 
C          C       0.80017   0.54361   0.58925 
C          C       0.75570   0.55436   0.45859 
C          C       0.78661   0.60581   0.59757 
H          H       0.82286   0.51512   0.63912 
C          C       0.74191   0.61665   0.46682 
H          H       0.74371   0.53426   0.40167 
C          C       0.75724   0.64317   0.53690 
H          H       0.79854   0.62615   0.65364 
H          H       0.71935   0.64514   0.41551 
C          C       0.87786   0.31497   0.46619 
C          C       0.89426   0.33908   0.40240 
C          C       0.89368   0.25473   0.51652 
C          C       0.16687   0.92137   0.55333 
H          H       0.15967   0.84725   0.59499 
C          C       0.18736   0.94214   0.54917 
H          H       0.23519   0.91365   0.56607 
C          C       0.16998   0.00769   0.52337 
C          C       0.17791   0.05208   0.52641 
C          C       0.13928   0.02495   0.49808 
C          C       0.15553   0.11391   0.50670 
C          C       0.11735   0.08544   0.47452 
C          C       0.12528   0.13056   0.48279 
C          C       0.13513   0.97136   0.51511 
C          C       0.17032   0.14948   0.52242 
C          C       0.15975   0.21130   0.51226 
C          C       0.20123   0.10968   0.55400 
C          C       0.17964   0.23187   0.53876 
H          H       0.13629   0.24417   0.48281 
C          C       0.22118   0.12990   0.58064 
C          C       0.21028   0.19206   0.57439 
H          H       0.17166   0.28006   0.53229 
H          H       0.24511   0.09812   0.60637 
C          C       0.20863   0.04514   0.55521 
C          C       0.08466   0.11459   0.45299 
C          C       0.07235   0.17740   0.45916 
C          C       0.06549   0.09140   0.43126 
C          C       0.04139   0.21695   0.45606 
C          C       0.03451   0.13088   0.42769 
H          H       0.07412   0.04332   0.41691 
C          C       0.02213   0.19335   0.44417 
H          H       0.03192   0.26571   0.46446 
H          H       0.01901   0.11389   0.41405 
C          C       0.09705   0.19259   0.47095 
C          C       0.98953   0.23233   0.45091 
C          C       0.23067   0.21467   0.60149 
H          H       0.98045   0.28165   0.46723 
H          H       0.25479   0.18000   0.62703 
H          H       0.20024   0.74474   0.65988 
C          C       0.05202   0.16623   0.79461 
H          H       0.03296   0.21167   0.77294 
H          H       0.07290   0.16665   0.78281 
H          H       0.05159   0.13645   0.70453 
C          C       0.09284   0.23072   0.61525 
H          H       0.10969   0.24419   0.62517 
H          H       0.07050   0.27146   0.61211 
H          H       0.09485   0.20534   0.72013 
C          C       0.09612   0.22546   0.32297 
H          H       0.11450   0.23473   0.32037 
C          C       0.61599   0.96531   0.64243 
H          H       0.59195   0.99835   0.63272 
H          H       0.61874   0.92124   0.66607 
H          H       0.62511   0.97782   0.74203 
C          C       0.61877   0.95221   0.35133 
H          H       0.61410   0.91608   0.37145 
H          H       0.59783   0.99256   0.31504 
H          H       0.63443   0.93870   0.25532 
C          C       0.17855   0.96785   0.17705 
H          H       0.18281   0.92212   0.18817 
H          H       0.20020   0.96606   0.18264 
H          H       0.16532   0.99392   0.27586 
C          C       0.17996   0.96667   0.88455 
H          H       0.17181   0.99827   0.78718 
H          H       0.20376   0.95160   0.90606 
H          H       0.17814   0.92790   0.84959 
C          C       0.22213   0.01791   0.71414 
H          H       0.24338   0.01701   0.73416 
H          H       0.20654   0.04533   0.80529 
H          H       0.22652   0.97211   0.72555 
C          C       0.22994   0.01113   0.42270 
H          H       0.25165   0.00828   0.44287 
H          H       0.23394   0.96553   0.40982 
H          H       0.22027   0.03475   0.31247 
C          C       0.67647   0.96781   0.83886 
H          H       0.70009   0.95586   0.84188 
H          H       0.67555   0.92770   0.80801 
H          H       0.66482   0.00095   0.74655 
C          C       0.68214   0.95943   0.13109 
H          H       0.67424   0.98659   0.23662 
H          H       0.68203   0.91788   0.15090 
H          H       0.70536   0.94800   0.11203 
C          C       0.72691   0.99645   0.63904 
H          H       0.71572   0.02194   0.74359 
H          H       0.72928   0.95214   0.64831 
H          H       0.74944   0.99062   0.63721 
C          C       0.72531   0.00233   0.34449 
H          H       0.74714   0.99981   0.34636 
H          H       0.72925   0.95697   0.32689 
H          H       0.71210   0.02972   0.24441 
