data_crystal
 
_cell_length_a    45.03840
_cell_length_b    45.03850
_cell_length_c    7.02100
_cell_angle_alpha 90.00000
_cell_angle_beta  90.00000
_cell_angle_gamma 60.00000
 
_symmetry_space_group_name_Hall 'P 1'
_symmetry_space_group_name_H-M  'P 1'
 
loop_
_symmetry_equiv_pos_as_xyz
 'x,y,z' 
 
loop_
_atom_site_label
_atom_site_type_symbol
_atom_site_fract_x
_atom_site_fract_y
_atom_site_fract_z
C          C       0.17854   0.38032   0.25000 
C          C       0.14254   0.39811   0.25000 
C          C       0.12439   0.43431   0.25000 
C          C       0.14288   0.45194   0.25000 
C          C       0.17869   0.43394   0.25000 
C          C       0.19654   0.39815   0.25000 
C          C       0.08641   0.45441   0.25000 
O          O       0.06866   0.49074   0.25000 
C          C       0.03491   0.49835   0.25000 
C          C       0.03344   0.46868   0.25000 
N          N       0.06700   0.44052   0.25000 
C          C       0.00240   0.46854   0.25000 
C          C       0.97287   0.50090   0.25000 
C          C       0.97437   0.53052   0.25000 
C          C       0.00537   0.53067   0.25000 
N          N       0.94082   0.55869   0.25000 
C          C       0.92128   0.54499   0.25000 
O          O       0.93906   0.50866   0.25000 
C          C       0.88307   0.56495   0.25000 
C          C       0.86612   0.54569   0.25000 
C          C       0.83040   0.56170   0.25000 
C          C       0.81075   0.59733   0.25000 
C          C       0.82688   0.61689   0.25000 
C          C       0.86258   0.60152   0.25000 
C          C       0.23341   0.37971   0.25000 
C          C       0.26429   0.36442   0.25000 
C          C       0.30115   0.34639   0.25000 
C          C       0.31865   0.36476   0.25000 
C          C       0.35453   0.34730   0.25000 
C          C       0.37294   0.31141   0.25000 
C          C       0.35545   0.29301   0.25000 
C          C       0.31955   0.31051   0.25000 
C          C       0.77394   0.61399   0.25000 
C          C       0.74309   0.62819   0.25000 
C          C       0.70626   0.64540   0.25000 
C          C       0.68942   0.62637   0.25000 
C          C       0.65354   0.64321   0.25000 
C          C       0.63454   0.67907   0.25000 
C          C       0.65135   0.69812   0.25000 
C          C       0.68721   0.68128   0.25000 
C          C       0.63174   0.73495   0.25000 
C          C       0.63612   0.62380   0.25000 
C          C       0.62115   0.60788   0.25000 
C          C       0.60288   0.58929   0.25000 
C          C       0.61508   0.76581   0.25000 
C          C       0.59494   0.80261   0.25000 
C          C       0.55925   0.81875   0.25000 
C          C       0.53892   0.85444   0.25000 
C          C       0.55499   0.87494   0.25000 
C          C       0.59121   0.85799   0.25000 
C          C       0.61091   0.82227   0.25000 
C          C       0.62082   0.55345   0.25000 
C          C       0.60313   0.53513   0.25000 
C          C       0.56693   0.55309   0.25000 
C          C       0.54920   0.58921   0.25000 
C          C       0.56709   0.60712   0.25000 
C          C       0.37235   0.36634   0.25000 
C          C       0.38687   0.38269   0.25000 
C          C       0.40369   0.40268   0.25000 
C          C       0.43933   0.38661   0.25000 
C          C       0.45544   0.40622   0.25000 
C          C       0.43627   0.44244   0.25000 
C          C       0.39969   0.45862   0.25000 
C          C       0.38423   0.43838   0.25000 
C          C       0.37428   0.25616   0.25000 
C          C       0.38989   0.22527   0.25000 
C          C       0.40831   0.18840   0.25000 
C          C       0.39037   0.17055   0.25000 
C          C       0.40818   0.13474   0.25000 
C          C       0.44430   0.11625   0.25000 
C          C       0.46234   0.13441   0.25000 
C          C       0.44414   0.17040   0.25000 
C          C       0.53674   0.91314   0.25000 
C          C       0.54687   0.53517   0.25000 
C          C       0.45630   0.46062   0.25000 
C          C       0.46218   0.07827   0.25000 
N          N       0.44262   0.49386   0.25000 
C          C       0.47080   0.49922   0.25000 
C          C       0.50041   0.46809   0.25000 
O          O       0.49263   0.44206   0.25000 
O          O       0.55528   0.93093   0.25000 
C          C       0.52923   0.96473   0.25000 
C          C       0.49811   0.96623   0.25000 
N          N       0.50350   0.93268   0.25000 
O          O       0.51055   0.55374   0.25000 
C          C       0.50296   0.52758   0.25000 
C          C       0.53264   0.49645   0.25000 
N          N       0.56079   0.50187   0.25000 
N          N       0.49548   0.05887   0.25000 
C          C       0.50089   0.02530   0.25000 
C          C       0.46975   0.02677   0.25000 
O          O       0.44359   0.06052   0.25000 
O          O       0.50359   0.86684   0.25000 
O          O       0.62145   0.49936   0.25000 
O          O       0.87499   0.62444   0.25000 
O          O       0.12496   0.37992   0.25000 
O          O       0.37683   0.49396   0.25000 
O          O       0.49812   0.11682   0.25000 
H          H       0.19245   0.35259   0.25000 
H          H       0.12934   0.47977   0.25000 
H          H       0.19254   0.44789   0.25000 
H          H       0.00120   0.44520   0.25000 
H          H       0.00655   0.55402   0.25000 
H          H       0.88082   0.51786   0.25000 
H          H       0.81807   0.54630   0.25000 
H          H       0.81185   0.64458   0.25000 
H          H       0.30440   0.39255   0.25000 
H          H       0.40072   0.29788   0.25000 
H          H       0.30601   0.29628   0.25000 
H          H       0.70415   0.59860   0.25000 
H          H       0.60677   0.69211   0.25000 
H          H       0.70024   0.69602   0.25000 
H          H       0.54659   0.80371   0.25000 
H          H       0.60434   0.87268   0.25000 
H          H       0.63865   0.80993   0.25000 
H          H       0.64855   0.53973   0.25000 
H          H       0.52136   0.60341   0.25000 
H          H       0.55306   0.63492   0.25000 
H          H       0.45466   0.35886   0.25000 
H          H       0.48327   0.39302   0.25000 
H          H       0.35653   0.45111   0.25000 
H          H       0.36258   0.18440   0.25000 
H          H       0.39389   0.12121   0.25000 
H          H       0.45796   0.18431   0.25000 
H          H       0.48779   0.89235   0.25000 
H          H       0.64724   0.48892   0.25000 
H          H       0.90050   0.61473   0.25000 
H          H       0.14023   0.35412   0.25000 
H          H       0.38660   0.50970   0.25000 
H          H       0.50866   0.13208   0.25000 
C          C       0.46696   0.99723   0.25000 
C          C       0.53206   0.99427   0.25000 
C          C       0.53277   0.46527   0.25000 
C          C       0.47064   0.53037   0.25000 
H          H       0.44243   0.99841   0.25000 
H          H       0.55661   0.99306   0.25000 
H          H       0.55613   0.44072   0.25000 
C          C       0.17854   0.38032   0.75000 
C          C       0.14254   0.39811   0.75000 
C          C       0.12439   0.43431   0.75000 
C          C       0.14288   0.45194   0.75000 
C          C       0.17869   0.43394   0.75000 
C          C       0.19654   0.39815   0.75000 
C          C       0.08641   0.45441   0.75000 
O          O       0.06866   0.49074   0.75000 
C          C       0.03491   0.49835   0.75000 
C          C       0.03344   0.46868   0.75000 
N          N       0.06700   0.44052   0.75000 
C          C       0.00240   0.46854   0.75000 
C          C       0.97287   0.50090   0.75000 
C          C       0.97437   0.53052   0.75000 
C          C       0.00537   0.53067   0.75000 
N          N       0.94082   0.55869   0.75000 
C          C       0.92128   0.54499   0.75000 
O          O       0.93906   0.50866   0.75000 
C          C       0.88307   0.56495   0.75000 
C          C       0.86612   0.54569   0.75000 
C          C       0.83040   0.56170   0.75000 
C          C       0.81075   0.59733   0.75000 
C          C       0.82688   0.61689   0.75000 
C          C       0.86258   0.60152   0.75000 
C          C       0.23341   0.37971   0.75000 
C          C       0.26429   0.36442   0.75000 
C          C       0.30115   0.34639   0.75000 
C          C       0.31865   0.36476   0.75000 
C          C       0.35453   0.34730   0.75000 
C          C       0.37294   0.31141   0.75000 
C          C       0.35545   0.29301   0.75000 
C          C       0.31955   0.31051   0.75000 
C          C       0.77394   0.61399   0.75000 
C          C       0.74309   0.62819   0.75000 
C          C       0.70626   0.64540   0.75000 
C          C       0.68942   0.62637   0.75000 
C          C       0.65354   0.64321   0.75000 
C          C       0.63454   0.67907   0.75000 
C          C       0.65135   0.69812   0.75000 
C          C       0.68721   0.68128   0.75000 
C          C       0.63174   0.73495   0.75000 
C          C       0.63612   0.62380   0.75000 
C          C       0.62115   0.60788   0.75000 
C          C       0.60288   0.58929   0.75000 
C          C       0.61508   0.76581   0.75000 
C          C       0.59494   0.80261   0.75000 
C          C       0.55925   0.81875   0.75000 
C          C       0.53892   0.85444   0.75000 
C          C       0.55499   0.87494   0.75000 
C          C       0.59121   0.85799   0.75000 
C          C       0.61091   0.82227   0.75000 
C          C       0.62082   0.55345   0.75000 
C          C       0.60313   0.53513   0.75000 
C          C       0.56693   0.55309   0.75000 
C          C       0.54920   0.58921   0.75000 
C          C       0.56709   0.60712   0.75000 
C          C       0.37235   0.36634   0.75000 
C          C       0.38687   0.38269   0.75000 
C          C       0.40369   0.40268   0.75000 
C          C       0.43933   0.38661   0.75000 
C          C       0.45544   0.40622   0.75000 
C          C       0.43627   0.44244   0.75000 
C          C       0.39969   0.45862   0.75000 
C          C       0.38423   0.43838   0.75000 
C          C       0.37428   0.25616   0.75000 
C          C       0.38989   0.22527   0.75000 
C          C       0.40831   0.18840   0.75000 
C          C       0.39037   0.17055   0.75000 
C          C       0.40818   0.13474   0.75000 
C          C       0.44430   0.11625   0.75000 
C          C       0.46234   0.13441   0.75000 
C          C       0.44414   0.17040   0.75000 
C          C       0.53674   0.91314   0.75000 
C          C       0.54687   0.53517   0.75000 
C          C       0.45630   0.46062   0.75000 
C          C       0.46218   0.07827   0.75000 
N          N       0.44262   0.49386   0.75000 
C          C       0.47080   0.49922   0.75000 
C          C       0.50041   0.46809   0.75000 
O          O       0.49263   0.44206   0.75000 
O          O       0.55528   0.93093   0.75000 
C          C       0.52923   0.96473   0.75000 
C          C       0.49811   0.96623   0.75000 
N          N       0.50350   0.93268   0.75000 
O          O       0.51055   0.55374   0.75000 
C          C       0.50296   0.52758   0.75000 
C          C       0.53264   0.49645   0.75000 
N          N       0.56079   0.50187   0.75000 
N          N       0.49548   0.05887   0.75000 
C          C       0.50089   0.02530   0.75000 
C          C       0.46975   0.02677   0.75000 
O          O       0.44359   0.06052   0.75000 
O          O       0.50359   0.86684   0.75000 
O          O       0.62145   0.49936   0.75000 
O          O       0.87499   0.62444   0.75000 
O          O       0.12496   0.37992   0.75000 
O          O       0.37683   0.49396   0.75000 
O          O       0.49812   0.11682   0.75000 
H          H       0.19245   0.35259   0.75000 
H          H       0.12934   0.47977   0.75000 
H          H       0.19254   0.44789   0.75000 
H          H       0.00120   0.44520   0.75000 
H          H       0.00655   0.55402   0.75000 
H          H       0.88082   0.51786   0.75000 
H          H       0.81807   0.54630   0.75000 
H          H       0.81185   0.64458   0.75000 
H          H       0.30440   0.39255   0.75000 
H          H       0.40072   0.29788   0.75000 
H          H       0.30601   0.29628   0.75000 
H          H       0.70415   0.59860   0.75000 
H          H       0.60677   0.69211   0.75000 
H          H       0.70024   0.69602   0.75000 
H          H       0.54659   0.80371   0.75000 
H          H       0.60434   0.87268   0.75000 
H          H       0.63865   0.80993   0.75000 
H          H       0.64855   0.53973   0.75000 
H          H       0.52136   0.60341   0.75000 
H          H       0.55306   0.63492   0.75000 
H          H       0.45466   0.35886   0.75000 
H          H       0.48327   0.39302   0.75000 
H          H       0.35653   0.45111   0.75000 
H          H       0.36258   0.18440   0.75000 
H          H       0.39389   0.12121   0.75000 
H          H       0.45796   0.18431   0.75000 
H          H       0.48779   0.89235   0.75000 
H          H       0.64724   0.48892   0.75000 
H          H       0.90050   0.61473   0.75000 
H          H       0.14023   0.35412   0.75000 
H          H       0.38660   0.50970   0.75000 
H          H       0.50866   0.13208   0.75000 
C          C       0.46696   0.99723   0.75000 
C          C       0.53206   0.99427   0.75000 
C          C       0.53277   0.46527   0.75000 
C          C       0.47064   0.53037   0.75000 
H          H       0.44243   0.99841   0.75000 
H          H       0.55661   0.99306   0.75000 
H          H       0.55613   0.44072   0.75000 
