data_crystal
 
_cell_length_a    45.00000
_cell_length_b    45.00000
_cell_length_c    7.00200
_cell_angle_alpha 90.00000
_cell_angle_beta  90.00000
_cell_angle_gamma 120.00000
 
_space_group_name_Hall 'P 1'
_space_group_name_H-M_alt  'P 1'
 
loop_
_symmetry_equiv_pos_as_xyz
 'x,y,z' 
 
loop_
_atom_site_label
_atom_site_type_symbol
_atom_site_fract_x
_atom_site_fract_y
_atom_site_fract_z
C          C       0.38482   0.55974   0.25000 
C          C       0.44026   0.82508   0.25000 
C          C       0.17492   0.61518   0.25000 
C          C       0.61518   0.44026   0.25000 
C          C       0.55974   0.17492   0.25000 
C          C       0.82508   0.38482   0.25000 
C          C       0.40255   0.54157   0.25000 
C          C       0.45843   0.86098   0.25000 
C          C       0.13902   0.59745   0.25000 
C          C       0.59745   0.45843   0.25000 
C          C       0.54157   0.13902   0.25000 
C          C       0.86098   0.40255   0.25000 
C          C       0.43866   0.55922   0.25000 
C          C       0.44078   0.87944   0.25000 
C          C       0.12056   0.56134   0.25000 
C          C       0.56134   0.44078   0.25000 
C          C       0.55922   0.12056   0.25000 
C          C       0.87944   0.43866   0.25000 
C          C       0.45661   0.59527   0.25000 
C          C       0.40473   0.86134   0.25000 
C          C       0.13866   0.54339   0.25000 
C          C       0.54339   0.40473   0.25000 
C          C       0.59527   0.13866   0.25000 
C          C       0.86134   0.45661   0.25000 
C          C       0.43882   0.61337   0.25000 
C          C       0.38663   0.82545   0.25000 
C          C       0.17455   0.56118   0.25000 
C          C       0.56118   0.38663   0.25000 
C          C       0.61337   0.17455   0.25000 
C          C       0.82545   0.43882   0.25000 
C          C       0.40293   0.59564   0.25000 
C          C       0.40436   0.80729   0.25000 
C          C       0.19271   0.59707   0.25000 
C          C       0.59707   0.40436   0.25000 
C          C       0.59564   0.19271   0.25000 
C          C       0.80729   0.40293   0.25000 
C          C       0.45785   0.54045   0.25000 
C          C       0.45955   0.91740   0.25000 
C          C       0.08260   0.54215   0.25000 
C          C       0.54215   0.45955   0.25000 
C          C       0.54045   0.08260   0.25000 
C          C       0.91740   0.45785   0.25000 
C          C       0.50027   0.53057   0.25000 
C          C       0.46943   0.96970   0.25000 
C          C       0.03030   0.49973   0.25000 
C          C       0.49973   0.46943   0.25000 
C          C       0.53057   0.03030   0.25000 
C          C       0.96970   0.50027   0.25000 
C          C       0.46976   0.50011   0.25000 
C          C       0.49989   0.96965   0.25000 
C          C       0.03035   0.53024   0.25000 
C          C       0.53024   0.49989   0.25000 
C          C       0.50011   0.03035   0.25000 
C          C       0.96965   0.46976   0.25000 
N          N       0.44250   0.50698   0.25000 
N          N       0.49302   0.93552   0.25000 
N          N       0.06448   0.55750   0.25000 
N          N       0.55750   0.49302   0.25000 
N          N       0.50698   0.06448   0.25000 
N          N       0.93552   0.44250   0.25000 
O          O       0.49413   0.55775   0.25000 
O          O       0.44225   0.93638   0.25000 
O          O       0.06362   0.50587   0.25000 
O          O       0.50587   0.44225   0.25000 
O          O       0.55775   0.06362   0.25000 
O          O       0.93638   0.49413   0.25000 
C          C       0.46807   0.46819   0.25000 
C          C       0.53181   0.99988   0.25000 
C          C       0.00012   0.53193   0.25000 
C          C       0.53193   0.53181   0.25000 
C          C       0.46819   0.00012   0.25000 
C          C       0.99988   0.46807   0.25000 
C          C       0.38467   0.61427   0.25000 
C          C       0.38573   0.77040   0.25000 
C          C       0.22960   0.61533   0.25000 
C          C       0.61533   0.38573   0.25000 
C          C       0.61427   0.22960   0.25000 
C          C       0.77040   0.38467   0.25000 
C          C       0.36937   0.62988   0.25000 
C          C       0.37012   0.73949   0.25000 
C          C       0.26051   0.63063   0.25000 
C          C       0.63063   0.37012   0.25000 
C          C       0.62988   0.26051   0.25000 
C          C       0.73949   0.36937   0.25000 
C          C       0.35111   0.64852   0.25000 
C          C       0.35148   0.70259   0.25000 
C          C       0.29741   0.64889   0.25000 
C          C       0.64889   0.35148   0.25000 
C          C       0.64852   0.29741   0.25000 
C          C       0.70259   0.35111   0.25000 
C          C       0.36925   0.68444   0.25000 
C          C       0.31556   0.68481   0.25000 
C          C       0.31519   0.63075   0.25000 
C          C       0.63075   0.31556   0.25000 
C          C       0.68444   0.31519   0.25000 
C          C       0.68481   0.36925   0.25000 
H          H       0.35703   0.54587   0.25000 
H          H       0.45413   0.81116   0.25000 
H          H       0.18884   0.64297   0.25000 
H          H       0.64297   0.45413   0.25000 
H          H       0.54587   0.18884   0.25000 
H          H       0.81116   0.35703   0.25000 
H          H       0.38816   0.51378   0.25000 
H          H       0.48622   0.87438   0.25000 
H          H       0.12562   0.61184   0.25000 
H          H       0.61184   0.48622   0.25000 
H          H       0.51378   0.12562   0.25000 
H          H       0.87438   0.38816   0.25000 
H          H       0.48443   0.60926   0.25000 
H          H       0.39074   0.87517   0.25000 
H          H       0.12483   0.51557   0.25000 
H          H       0.51557   0.39074   0.25000 
H          H       0.60926   0.12483   0.25000 
H          H       0.87517   0.48443   0.25000 
H          H       0.45299   0.64116   0.25000 
H          H       0.35884   0.81183   0.25000 
H          H       0.18817   0.54701   0.25000 
H          H       0.54701   0.35884   0.25000 
H          H       0.64116   0.18817   0.25000 
H          H       0.81183   0.45299   0.25000 
H          H       0.44408   0.44422   0.25000 
H          H       0.55578   0.99986   0.25000 
H          H       0.00014   0.55592   0.25000 
H          H       0.55592   0.55578   0.25000 
H          H       0.44422   0.00014   0.25000 
H          H       0.99986   0.44408   0.25000 
H          H       0.39705   0.69820   0.25000 
H          H       0.30180   0.69885   0.25000 
H          H       0.30115   0.60295   0.25000 
H          H       0.60295   0.30180   0.25000 
H          H       0.69820   0.30115   0.25000 
H          H       0.69885   0.39705   0.25000 
C          C       0.38482   0.55974   0.75000 
C          C       0.44026   0.82508   0.75000 
C          C       0.17492   0.61518   0.75000 
C          C       0.61518   0.44026   0.75000 
C          C       0.55974   0.17492   0.75000 
C          C       0.82508   0.38482   0.75000 
C          C       0.40255   0.54157   0.75000 
C          C       0.45843   0.86098   0.75000 
C          C       0.13902   0.59745   0.75000 
C          C       0.59745   0.45843   0.75000 
C          C       0.54157   0.13902   0.75000 
C          C       0.86098   0.40255   0.75000 
C          C       0.43866   0.55922   0.75000 
C          C       0.44078   0.87944   0.75000 
C          C       0.12056   0.56134   0.75000 
C          C       0.56134   0.44078   0.75000 
C          C       0.55922   0.12056   0.75000 
C          C       0.87944   0.43866   0.75000 
C          C       0.45661   0.59527   0.75000 
C          C       0.40473   0.86134   0.75000 
C          C       0.13866   0.54339   0.75000 
C          C       0.54339   0.40473   0.75000 
C          C       0.59527   0.13866   0.75000 
C          C       0.86134   0.45661   0.75000 
C          C       0.43882   0.61337   0.75000 
C          C       0.38663   0.82545   0.75000 
C          C       0.17455   0.56118   0.75000 
C          C       0.56118   0.38663   0.75000 
C          C       0.61337   0.17455   0.75000 
C          C       0.82545   0.43882   0.75000 
C          C       0.40293   0.59564   0.75000 
C          C       0.40436   0.80729   0.75000 
C          C       0.19271   0.59707   0.75000 
C          C       0.59707   0.40436   0.75000 
C          C       0.59564   0.19271   0.75000 
C          C       0.80729   0.40293   0.75000 
C          C       0.45785   0.54045   0.75000 
C          C       0.45955   0.91740   0.75000 
C          C       0.08260   0.54215   0.75000 
C          C       0.54215   0.45955   0.75000 
C          C       0.54045   0.08260   0.75000 
C          C       0.91740   0.45785   0.75000 
C          C       0.50027   0.53057   0.75000 
C          C       0.46943   0.96970   0.75000 
C          C       0.03030   0.49973   0.75000 
C          C       0.49973   0.46943   0.75000 
C          C       0.53057   0.03030   0.75000 
C          C       0.96970   0.50027   0.75000 
C          C       0.46976   0.50011   0.75000 
C          C       0.49989   0.96965   0.75000 
C          C       0.03035   0.53024   0.75000 
C          C       0.53024   0.49989   0.75000 
C          C       0.50011   0.03035   0.75000 
C          C       0.96965   0.46976   0.75000 
N          N       0.44250   0.50698   0.75000 
N          N       0.49302   0.93552   0.75000 
N          N       0.06448   0.55750   0.75000 
N          N       0.55750   0.49302   0.75000 
N          N       0.50698   0.06448   0.75000 
N          N       0.93552   0.44250   0.75000 
O          O       0.49413   0.55775   0.75000 
O          O       0.44225   0.93638   0.75000 
O          O       0.06362   0.50587   0.75000 
O          O       0.50587   0.44225   0.75000 
O          O       0.55775   0.06362   0.75000 
O          O       0.93638   0.49413   0.75000 
C          C       0.46807   0.46819   0.75000 
C          C       0.53181   0.99988   0.75000 
C          C       0.00012   0.53193   0.75000 
C          C       0.53193   0.53181   0.75000 
C          C       0.46819   0.00012   0.75000 
C          C       0.99988   0.46807   0.75000 
C          C       0.38467   0.61427   0.75000 
C          C       0.38573   0.77040   0.75000 
C          C       0.22960   0.61533   0.75000 
C          C       0.61533   0.38573   0.75000 
C          C       0.61427   0.22960   0.75000 
C          C       0.77040   0.38467   0.75000 
C          C       0.36937   0.62988   0.75000 
C          C       0.37012   0.73949   0.75000 
C          C       0.26051   0.63063   0.75000 
C          C       0.63063   0.37012   0.75000 
C          C       0.62988   0.26051   0.75000 
C          C       0.73949   0.36937   0.75000 
C          C       0.35111   0.64852   0.75000 
C          C       0.35148   0.70259   0.75000 
C          C       0.29741   0.64889   0.75000 
C          C       0.64889   0.35148   0.75000 
C          C       0.64852   0.29741   0.75000 
C          C       0.70259   0.35111   0.75000 
C          C       0.36925   0.68444   0.75000 
C          C       0.31556   0.68481   0.75000 
C          C       0.31519   0.63075   0.75000 
C          C       0.63075   0.31556   0.75000 
C          C       0.68444   0.31519   0.75000 
C          C       0.68481   0.36925   0.75000 
H          H       0.35703   0.54587   0.75000 
H          H       0.45413   0.81116   0.75000 
H          H       0.18884   0.64297   0.75000 
H          H       0.64297   0.45413   0.75000 
H          H       0.54587   0.18884   0.75000 
H          H       0.81116   0.35703   0.75000 
H          H       0.38816   0.51378   0.75000 
H          H       0.48622   0.87438   0.75000 
H          H       0.12562   0.61184   0.75000 
H          H       0.61184   0.48622   0.75000 
H          H       0.51378   0.12562   0.75000 
H          H       0.87438   0.38816   0.75000 
H          H       0.48443   0.60926   0.75000 
H          H       0.39074   0.87517   0.75000 
H          H       0.12483   0.51557   0.75000 
H          H       0.51557   0.39074   0.75000 
H          H       0.60926   0.12483   0.75000 
H          H       0.87517   0.48443   0.75000 
H          H       0.45299   0.64116   0.75000 
H          H       0.35884   0.81183   0.75000 
H          H       0.18817   0.54701   0.75000 
H          H       0.54701   0.35884   0.75000 
H          H       0.64116   0.18817   0.75000 
H          H       0.81183   0.45299   0.75000 
H          H       0.44408   0.44422   0.75000 
H          H       0.55578   0.99986   0.75000 
H          H       0.00014   0.55592   0.75000 
H          H       0.55592   0.55578   0.75000 
H          H       0.44422   0.00014   0.75000 
H          H       0.99986   0.44408   0.75000 
H          H       0.39705   0.69820   0.75000 
H          H       0.30180   0.69885   0.75000 
H          H       0.30115   0.60295   0.75000 
H          H       0.60295   0.30180   0.75000 
H          H       0.69820   0.30115   0.75000 
H          H       0.69885   0.39705   0.75000 
