data_crystal
 
_cell_length_a    31.53530
_cell_length_b    31.53530
_cell_length_c    8.39348
_cell_angle_alpha 90.00000
_cell_angle_beta  90.00000
_cell_angle_gamma 120.00000
 
_symmetry_space_group_name_Hall 'P 1'
_symmetry_space_group_name_H-M  'P 1'
 
loop_
_symmetry_equiv_pos_as_xyz
 'x,y,z' 
 
loop_
_atom_site_label
_atom_site_type_symbol
_atom_site_fract_x
_atom_site_fract_y
_atom_site_fract_z
C          C       0.28373   0.63080   0.08822 
C          C       0.36920   0.65293   0.08822 
C          C       0.34707   0.71627   0.08822 
C          C       0.71627   0.36920   0.08822 
C          C       0.63080   0.34707   0.08822 
C          C       0.65293   0.28373   0.08822 
C          C       0.31969   0.61745   0.08790 
C          C       0.38255   0.70224   0.08790 
C          C       0.29776   0.68031   0.08790 
C          C       0.68031   0.38255   0.08790 
C          C       0.61745   0.29776   0.08790 
C          C       0.70224   0.31969   0.08790 
H          H       0.30902   0.57874   0.08940 
H          H       0.42126   0.73028   0.08940 
H          H       0.26972   0.69098   0.08940 
H          H       0.69098   0.42126   0.08940 
H          H       0.57874   0.26972   0.08940 
H          H       0.73028   0.30902   0.08940 
C          C       0.54981   0.33381   0.18109 
C          C       0.66619   0.21600   0.18109 
C          C       0.78400   0.45019   0.18109 
C          C       0.45019   0.66619   0.18109 
C          C       0.33381   0.78400   0.18109 
C          C       0.21600   0.54981   0.18109 
C          C       0.59314   0.36189   0.09606 
C          C       0.63811   0.23125   0.09606 
C          C       0.76875   0.40686   0.09606 
C          C       0.40686   0.63811   0.09606 
C          C       0.36189   0.76875   0.09606 
C          C       0.23125   0.59314   0.09606 
C          C       0.60035   0.40460   0.02167 
C          C       0.59540   0.19575   0.02167 
C          C       0.80425   0.39965   0.02167 
C          C       0.39965   0.59540   0.02167 
C          C       0.40460   0.80425   0.02167 
C          C       0.19575   0.60035   0.02167 
C          C       0.56639   0.41987   0.03522 
C          C       0.58013   0.14652   0.03522 
C          C       0.85348   0.43361   0.03522 
C          C       0.43361   0.58013   0.03522 
C          C       0.41987   0.85348   0.03522 
C          C       0.14652   0.56639   0.03522 
C          C       0.52437   0.39293   0.12807 
C          C       0.60707   0.13144   0.12807 
C          C       0.86856   0.47563   0.12807 
C          C       0.47563   0.60707   0.12807 
C          C       0.39293   0.86856   0.12807 
C          C       0.13144   0.52437   0.12807 
C          C       0.51583   0.34890   0.19700 
C          C       0.65110   0.16693   0.19700 
C          C       0.83307   0.48417   0.19700 
C          C       0.48417   0.65110   0.19700 
C          C       0.34890   0.83307   0.19700 
C          C       0.16693   0.51583   0.19700 
N          N       0.48869   0.40624   0.14854 
N          N       0.59376   0.08245   0.14854 
N          N       0.91755   0.51131   0.14854 
N          N       0.51131   0.59376   0.14854 
N          N       0.40624   0.91755   0.14854 
N          N       0.08245   0.48869   0.14854 
C          C       0.49516   0.45288   0.15129 
C          C       0.54712   0.04228   0.15129 
C          C       0.95772   0.50484   0.15129 
C          C       0.50484   0.54712   0.15129 
C          C       0.45288   0.95772   0.15129 
C          C       0.04228   0.49516   0.15129 
C          C       0.54136   0.49499   0.15862 
C          C       0.50501   0.04637   0.15862 
C          C       0.95363   0.45864   0.15862 
C          C       0.45864   0.50501   0.15862 
C          C       0.49499   0.95363   0.15862 
C          C       0.04637   0.54136   0.15862 
C          C       0.54692   0.54167   0.15835 
C          C       0.45833   0.00525   0.15835 
C          C       0.99475   0.45308   0.15835 
C          C       0.45308   0.45833   0.15835 
C          C       0.54167   0.99475   0.15835 
C          C       0.00525   0.54692   0.15835 
H          H       0.54318   0.30010   0.23944 
H          H       0.69990   0.24308   0.23944 
H          H       0.75692   0.45682   0.23944 
H          H       0.45682   0.69990   0.23944 
H          H       0.30010   0.75692   0.23944 
H          H       0.24308   0.54318   0.23944 
H          H       0.63291   0.42592   0.44865 
H          H       0.57408   0.20699   0.44865 
H          H       0.79301   0.36709   0.44865 
H          H       0.36709   0.57408   0.44865 
H          H       0.42592   0.79301   0.44865 
H          H       0.20699   0.63291   0.44865 
H          H       0.57201   0.45218   0.47009 
H          H       0.54782   0.11983   0.47009 
H          H       0.88017   0.42799   0.47009 
H          H       0.42799   0.54782   0.47009 
H          H       0.45218   0.88017   0.47009 
H          H       0.11983   0.57201   0.47009 
H          H       0.48244   0.32705   0.26580 
H          H       0.67295   0.15539   0.26580 
H          H       0.84461   0.51756   0.26580 
H          H       0.51756   0.67295   0.26580 
H          H       0.32705   0.84461   0.26580 
H          H       0.15539   0.48244   0.26580 
H          H       0.45363   0.37865   0.17955 
H          H       0.62135   0.07498   0.17955 
H          H       0.92502   0.54637   0.17955 
H          H       0.54637   0.62135   0.17955 
H          H       0.37865   0.92502   0.17955 
H          H       0.07498   0.45363   0.17955 
H          H       0.57404   0.49175   0.17058 
H          H       0.50825   0.08229   0.17058 
H          H       0.91771   0.42596   0.17058 
H          H       0.42596   0.50825   0.17058 
H          H       0.49175   0.91771   0.17058 
H          H       0.08229   0.57404   0.17058 
C          C       0.59667   0.58450   0.17461 
C          C       0.41550   0.01217   0.17461 
C          C       0.98783   0.40333   0.17461 
C          C       0.40333   0.41550   0.17461 
C          C       0.58450   0.98783   0.17461 
C          C       0.01217   0.59667   0.17461 
O          O       0.37210   0.97909   0.18645 
O          O       0.02091   0.39301   0.18645 
O          O       0.60699   0.62790   0.18645 
O          O       0.62790   0.02091   0.18645 
O          O       0.97909   0.60699   0.18645 
O          O       0.39301   0.37210   0.18645 
O          O       0.42697   0.06039   0.17901 
O          O       0.93961   0.36658   0.17901 
O          O       0.63342   0.57303   0.17901 
O          O       0.57303   0.93961   0.17901 
O          O       0.06039   0.63342   0.17901 
O          O       0.36658   0.42697   0.17901 
C          C       0.38489   0.06626   0.19950 
C          C       0.93374   0.31863   0.19950 
C          C       0.68137   0.61511   0.19950 
C          C       0.61511   0.93374   0.19950 
C          C       0.06626   0.68137   0.19950 
C          C       0.31863   0.38489   0.19950 
H          H       0.36599   0.04896   0.31130 
H          H       0.95104   0.31703   0.31130 
H          H       0.68297   0.63401   0.31130 
H          H       0.63401   0.95104   0.31130 
H          H       0.04896   0.68297   0.31130 
H          H       0.31703   0.36599   0.31130 
H          H       0.35936   0.04932   0.09943 
H          H       0.95068   0.31004   0.09943 
H          H       0.68996   0.64064   0.09943 
H          H       0.64064   0.95068   0.09943 
H          H       0.04932   0.68996   0.09943 
H          H       0.31004   0.35936   0.09943 
H          H       0.39786   0.10556   0.20320 
H          H       0.89444   0.29230   0.20320 
H          H       0.70770   0.60214   0.20320 
H          H       0.60214   0.89444   0.20320 
H          H       0.10556   0.70770   0.20320 
H          H       0.29230   0.39786   0.20320 
C          C       0.28373   0.63080   0.58822 
C          C       0.36920   0.65293   0.58822 
C          C       0.34707   0.71627   0.58822 
C          C       0.71627   0.36920   0.58822 
C          C       0.63080   0.34707   0.58822 
C          C       0.65293   0.28373   0.58822 
C          C       0.31969   0.61745   0.58791 
C          C       0.38255   0.70224   0.58791 
C          C       0.29776   0.68031   0.58791 
C          C       0.68031   0.38255   0.58791 
C          C       0.61745   0.29776   0.58791 
C          C       0.70224   0.31969   0.58791 
H          H       0.30902   0.57874   0.58940 
H          H       0.42126   0.73028   0.58940 
H          H       0.26972   0.69098   0.58940 
H          H       0.69098   0.42126   0.58940 
H          H       0.57874   0.26972   0.58940 
H          H       0.73028   0.30902   0.58940 
C          C       0.54981   0.33381   0.68109 
C          C       0.66619   0.21600   0.68109 
C          C       0.78400   0.45019   0.68109 
C          C       0.45019   0.66619   0.68109 
C          C       0.33381   0.78400   0.68109 
C          C       0.21600   0.54981   0.68109 
C          C       0.59314   0.36189   0.59606 
C          C       0.63811   0.23125   0.59606 
C          C       0.76875   0.40686   0.59606 
C          C       0.40686   0.63811   0.59606 
C          C       0.36189   0.76875   0.59606 
C          C       0.23125   0.59314   0.59606 
C          C       0.60035   0.40460   0.52167 
C          C       0.59540   0.19575   0.52167 
C          C       0.80425   0.39965   0.52167 
C          C       0.39965   0.59540   0.52167 
C          C       0.40460   0.80425   0.52167 
C          C       0.19575   0.60035   0.52167 
C          C       0.56639   0.41987   0.53522 
C          C       0.58013   0.14652   0.53522 
C          C       0.85348   0.43361   0.53522 
C          C       0.43361   0.58013   0.53522 
C          C       0.41987   0.85348   0.53522 
C          C       0.14652   0.56639   0.53522 
C          C       0.52437   0.39293   0.62806 
C          C       0.60707   0.13144   0.62806 
C          C       0.86856   0.47563   0.62806 
C          C       0.47563   0.60707   0.62806 
C          C       0.39293   0.86856   0.62806 
C          C       0.13144   0.52437   0.62806 
C          C       0.51583   0.34890   0.69700 
C          C       0.65110   0.16693   0.69700 
C          C       0.83307   0.48417   0.69700 
C          C       0.48417   0.65110   0.69700 
C          C       0.34890   0.83307   0.69700 
C          C       0.16693   0.51583   0.69700 
N          N       0.48869   0.40624   0.64853 
N          N       0.59376   0.08245   0.64853 
N          N       0.91755   0.51131   0.64853 
N          N       0.51131   0.59376   0.64853 
N          N       0.40624   0.91755   0.64853 
N          N       0.08245   0.48869   0.64853 
C          C       0.49516   0.45288   0.65129 
C          C       0.54712   0.04228   0.65129 
C          C       0.95772   0.50484   0.65129 
C          C       0.50484   0.54712   0.65129 
C          C       0.45288   0.95772   0.65129 
C          C       0.04228   0.49516   0.65129 
C          C       0.54136   0.49499   0.65863 
C          C       0.50501   0.04637   0.65863 
C          C       0.95363   0.45864   0.65863 
C          C       0.45864   0.50501   0.65863 
C          C       0.49499   0.95363   0.65863 
C          C       0.04637   0.54136   0.65863 
C          C       0.54692   0.54167   0.65836 
C          C       0.45833   0.00525   0.65836 
C          C       0.99475   0.45308   0.65836 
C          C       0.45308   0.45833   0.65836 
C          C       0.54167   0.99475   0.65836 
C          C       0.00525   0.54692   0.65836 
H          H       0.54318   0.30010   0.73945 
H          H       0.69990   0.24308   0.73945 
H          H       0.75692   0.45682   0.73945 
H          H       0.45682   0.69990   0.73945 
H          H       0.30010   0.75692   0.73945 
H          H       0.24308   0.54318   0.73945 
H          H       0.63291   0.42592   0.94865 
H          H       0.57408   0.20699   0.94865 
H          H       0.79301   0.36709   0.94865 
H          H       0.36709   0.57408   0.94865 
H          H       0.42592   0.79301   0.94865 
H          H       0.20699   0.63291   0.94865 
H          H       0.57201   0.45218   0.97010 
H          H       0.54782   0.11983   0.97010 
H          H       0.88017   0.42799   0.97010 
H          H       0.42799   0.54782   0.97010 
H          H       0.45218   0.88017   0.97010 
H          H       0.11983   0.57201   0.97010 
H          H       0.48244   0.32705   0.76580 
H          H       0.67295   0.15539   0.76580 
H          H       0.84461   0.51756   0.76580 
H          H       0.51756   0.67295   0.76580 
H          H       0.32705   0.84461   0.76580 
H          H       0.15539   0.48244   0.76580 
H          H       0.45363   0.37865   0.67956 
H          H       0.62135   0.07498   0.67956 
H          H       0.92502   0.54637   0.67956 
H          H       0.54637   0.62135   0.67956 
H          H       0.37865   0.92502   0.67956 
H          H       0.07498   0.45363   0.67956 
H          H       0.57404   0.49175   0.67058 
H          H       0.50825   0.08229   0.67058 
H          H       0.91771   0.42596   0.67058 
H          H       0.42596   0.50825   0.67058 
H          H       0.49175   0.91771   0.67058 
H          H       0.08229   0.57404   0.67058 
C          C       0.59667   0.58450   0.67461 
C          C       0.41550   0.01217   0.67461 
C          C       0.98783   0.40333   0.67461 
C          C       0.40333   0.41550   0.67461 
C          C       0.58450   0.98783   0.67461 
C          C       0.01217   0.59667   0.67461 
O          O       0.37210   0.97909   0.68645 
O          O       0.02091   0.39301   0.68645 
O          O       0.60699   0.62790   0.68645 
O          O       0.62790   0.02091   0.68645 
O          O       0.97909   0.60699   0.68645 
O          O       0.39301   0.37210   0.68645 
O          O       0.42697   0.06039   0.67901 
O          O       0.93961   0.36658   0.67901 
O          O       0.63342   0.57303   0.67901 
O          O       0.57303   0.93961   0.67901 
O          O       0.06039   0.63342   0.67901 
O          O       0.36658   0.42697   0.67901 
C          C       0.38489   0.06626   0.69949 
C          C       0.93374   0.31863   0.69949 
C          C       0.68137   0.61511   0.69949 
C          C       0.61511   0.93374   0.69949 
C          C       0.06626   0.68137   0.69949 
C          C       0.31863   0.38489   0.69949 
H          H       0.36599   0.04896   0.81130 
H          H       0.95104   0.31703   0.81130 
H          H       0.68297   0.63401   0.81130 
H          H       0.63401   0.95104   0.81130 
H          H       0.04896   0.68297   0.81130 
H          H       0.31703   0.36599   0.81130 
H          H       0.35936   0.04932   0.59943 
H          H       0.95068   0.31004   0.59943 
H          H       0.68996   0.64064   0.59943 
H          H       0.64064   0.95068   0.59943 
H          H       0.04932   0.68996   0.59943 
H          H       0.31004   0.35936   0.59943 
H          H       0.39786   0.10556   0.70320 
H          H       0.89444   0.29230   0.70320 
H          H       0.70770   0.60214   0.70320 
H          H       0.60214   0.89444   0.70320 
H          H       0.10556   0.70770   0.70320 
H          H       0.29230   0.39786   0.70320 
