data_crystal
 
_cell_length_a    34.67000
_cell_length_b    34.69000
_cell_length_c    10.66000
_cell_angle_alpha 69.00000
_cell_angle_beta  110.00000
_cell_angle_gamma 110.00000
 
_space_group_name_Hall 'P 1'
_space_group_name_H-M_alt  'P 1'
 
loop_
_symmetry_equiv_pos_as_xyz
 'x,y,z' 
 
loop_
_atom_site_label
_atom_site_type_symbol
_atom_site_fract_x
_atom_site_fract_y
_atom_site_fract_z
C          C       0.31408   0.13695   0.43947 
C          C       0.87420   0.06411   0.46942 
C          C       0.12927   0.31112   0.05277 
C          C       0.54939   0.37358   0.49572 
C          C       0.81190   0.63292   0.04105 
C          C       0.36827   0.55174   0.00874 
C          C       0.62876   0.81449   0.46658 
C          C       0.06055   0.87805   0.03998 
N          N       0.84987   0.02643   0.00827 
N          N       0.33557   0.15863   0.03175 
N          N       0.51243   0.34601   0.47692 
N          N       0.84308   0.66570   0.06741 
N          N       0.15737   0.33816   0.48738 
N          N       0.02271   0.85405   0.49967 
N          N       0.34093   0.51472   0.02879 
N          N       0.66137   0.84579   0.43992 
C          C       0.90651   0.84385   0.41032 
C          C       0.94581   0.84000   0.41509 
C          C       0.98339   0.85856   0.00144 
C          C       0.98132   0.88010   0.08779 
C          C       0.94191   0.88305   0.08599 
C          C       0.80050   0.76169   0.44042 
C          C       0.80386   0.72141   0.45443 
C          C       0.83741   0.70586   0.05599 
C          C       0.86719   0.73098   0.14327 
C          C       0.86363   0.77126   0.12978 
C          C       0.87880   0.94574   0.42112 
C          C       0.87580   0.98506   0.41968 
C          C       0.85427   0.98713   0.00596 
C          C       0.83565   0.94959   0.09167 
C          C       0.83956   0.91037   0.09607 
C          C       0.85987   0.90786   0.00696 
C          C       0.90398   0.86409   0.49969 
C          C       0.83105   0.78764   0.02471 
C          C       0.86205   0.86602   0.00333 
C          C       0.82741   0.83125   0.00332 
C          C       0.72651   0.87013   0.36340 
C          C       0.70165   0.84040   0.45107 
C          C       0.71759   0.80719   0.05287 
C          C       0.75799   0.80410   0.06671 
C          C       0.78367   0.83459   0.48201 
C          C       0.76693   0.86685   0.37673 
C          C       0.82149   0.13533   0.01593 
C          C       0.82897   0.09910   0.00958 
C          C       0.86611   0.10199   0.47801 
C          C       0.89591   0.14157   0.45467 
C          C       0.88881   0.17771   0.46319 
C          C       0.65989   0.39145   0.46223 
C          C       0.62370   0.39895   0.46968 
C          C       0.58735   0.36525   0.48755 
C          C       0.58790   0.32386   0.49873 
C          C       0.62443   0.31622   0.49447 
C          C       0.86758   0.55647   0.04174 
C          C       0.86084   0.59331   0.04657 
C          C       0.82019   0.59381   0.04351 
C          C       0.78653   0.55687   0.03703 
C          C       0.79334   0.51994   0.03358 
C          C       0.85130   0.17514   0.49271 
C          C       0.66061   0.34998   0.47578 
C          C       0.83385   0.51950   0.03506 
C          C       0.92222   0.33840   0.14941 
C          C       0.96137   0.33298   0.15896 
C          C       0.97944   0.35124   0.04548 
C          C       0.95831   0.37669   0.42507 
C          C       0.91905   0.38179   0.41563 
C          C       0.81212   0.24890   0.08471 
C          C       0.82051   0.21222   0.08535 
C          C       0.84278   0.21400   0.49505 
C          C       0.85587   0.25319   0.40345 
C          C       0.84713   0.28962   0.40232 
C          C       0.86983   0.44443   0.44035 
C          C       0.86394   0.48183   0.44419 
C          C       0.84087   0.48032   0.03135 
C          C       0.82468   0.44106   0.11649 
C          C       0.83131   0.40391   0.11449 
C          C       0.85237   0.40467   0.02233 
C          C       0.90025   0.36229   0.02723 
C          C       0.82690   0.28854   0.49705 
C          C       0.85649   0.36415   0.01391 
C          C       0.82222   0.32892   0.00477 
C          C       0.71849   0.36229   0.36605 
C          C       0.69986   0.34174   0.47753 
C          C       0.72002   0.31472   0.09449 
C          C       0.75917   0.30972   0.10251 
C          C       0.77841   0.33063   0.49192 
C          C       0.75717   0.35636   0.37283 
C          C       0.37052   0.05059   0.03571 
C          C       0.36162   0.08723   0.03378 
C          C       0.32388   0.09798   0.44634 
C          C       0.29507   0.07135   0.36192 
C          C       0.30333   0.03419   0.36635 
C          C       0.34131   0.02324   0.45274 
C          C       0.02530   0.30101   0.11723 
C          C       0.06128   0.29142   0.11761 
C          C       0.09136   0.32220   0.04940 
C          C       0.08492   0.36295   0.48118 
C          C       0.04901   0.37271   0.48155 
C          C       0.01869   0.34180   0.04951 
C          C       0.51576   0.79528   0.47558 
C          C       0.55275   0.78872   0.47151 
C          C       0.58957   0.82250   0.46478 
C          C       0.58890   0.86302   0.46221 
C          C       0.55202   0.86950   0.46768 
C          C       0.31080   0.62660   0.01059 
C          C       0.31845   0.59011   0.00613 
C          C       0.35986   0.58967   0.01665 
C          C       0.39357   0.62610   0.03393 
C          C       0.38606   0.66223   0.04164 
C          C       0.17409   0.89198   0.04646 
C          C       0.13810   0.89926   0.05549 
C          C       0.09830   0.86975   0.03127 
C          C       0.09505   0.83269   0.49845 
C          C       0.13112   0.82502   0.49163 
C          C       0.34458   0.66283   0.02889 
C          C       0.51516   0.83566   0.47453 
C          C       0.17113   0.85457   0.01559 
C          C       0.39619   0.33417   0.40419 
C          C       0.43508   0.33081   0.40270 
C          C       0.47353   0.35051   0.48285 
C          C       0.47283   0.37269   0.06954 
C          C       0.43386   0.37479   0.07536 
C          C       0.28845   0.25000   0.45020 
C          C       0.29191   0.21079   0.45258 
C          C       0.32876   0.19702   0.03396 
C          C       0.36006   0.22156   0.12081 
C          C       0.35646   0.26083   0.11847 
C          C       0.37057   0.43609   0.43326 
C          C       0.36773   0.47500   0.43694 
C          C       0.34578   0.47586   0.02398 
C          C       0.32702   0.43761   0.10659 
C          C       0.33129   0.39889   0.10741 
C          C       0.35148   0.39735   0.01597 
C          C       0.39493   0.35471   0.49517 
C          C       0.32180   0.27679   0.02623 
C          C       0.35345   0.35575   0.00720 
C          C       0.31891   0.32057   0.00997 
C          C       0.21762   0.35831   0.38841 
C          C       0.19616   0.33118   0.48917 
C          C       0.21426   0.29933   0.09198 
C          C       0.25322   0.29534   0.09394 
C          C       0.27573   0.32378   0.49744 
C          C       0.25690   0.35448   0.39138 
C          C       0.39935   0.83283   0.39460 
C          C       0.43656   0.82621   0.39294 
C          C       0.47589   0.84245   0.47847 
C          C       0.47741   0.86548   0.06593 
C          C       0.43995   0.87135   0.06945 
C          C       0.30442   0.76129   0.40380 
C          C       0.30928   0.72217   0.41114 
C          C       0.33637   0.70197   0.02789 
C          C       0.35711   0.72052   0.13985 
C          C       0.35135   0.75918   0.13372 
C          C       0.37737   0.92085   0.09298 
C          C       0.37323   0.96061   0.08238 
C          C       0.34937   0.98277   0.45955 
C          C       0.33162   0.96471   0.34554 
C          C       0.33562   0.92480   0.35696 
C          C       0.35814   0.90219   0.48085 
C          C       0.40014   0.85394   0.48677 
C          C       0.32558   0.78048   0.01481 
C          C       0.35963   0.85834   0.49423 
C          C       0.32419   0.82432   0.00247 
C          C       0.24920   0.85857   0.10477 
C          C       0.20981   0.84582   0.01269 
C          C       0.20764   0.82359   0.42154 
C          C       0.24414   0.81489   0.42191 
C          C       0.28397   0.82932   0.01014 
C          C       0.28542   0.84946   0.10568 
H          H       0.28875   0.14721   0.35347 
H          H       0.90172   0.06825   0.43543 
H          H       0.13270   0.27950   0.11055 
H          H       0.55250   0.40387   0.01138 
H          H       0.77910   0.63377   0.01710 
H          H       0.39854   0.55492   0.49270 
H          H       0.62984   0.78181   0.49046 
H          H       0.06490   0.90541   0.07515 
H          H       0.87799   0.83036   0.33897 
H          H       0.94754   0.82311   0.34985 
H          H       0.00972   0.89352   0.15932 
H          H       0.94087   0.89945   0.15419 
H          H       0.77406   0.77291   0.36349 
H          H       0.78097   0.70291   0.38383 
H          H       0.89299   0.71902   0.22201 
H          H       0.88661   0.78989   0.19958 
H          H       0.89524   0.94473   0.35306 
H          H       0.88922   0.01342   0.34854 
H          H       0.81874   0.95128   0.15685 
H          H       0.82609   0.88190   0.16711 
H          H       0.71425   0.89567   0.28451 
H          H       0.69931   0.78437   0.12379 
H          H       0.76954   0.77793   0.14387 
H          H       0.78537   0.88979   0.30671 
H          H       0.79195   0.13225   0.03635 
H          H       0.80553   0.06878   0.02780 
H          H       0.92484   0.14445   0.43067 
H          H       0.91286   0.20764   0.44748 
H          H       0.68778   0.41776   0.44934 
H          H       0.62398   0.43108   0.46104 
H          H       0.56020   0.29743   0.01279 
H          H       0.62453   0.28404   0.00526 
H          H       0.89916   0.55667   0.04444 
H          H       0.88712   0.62166   0.05063 
H          H       0.75493   0.55667   0.03419 
H          H       0.76682   0.49184   0.02744 
H          H       0.90885   0.32353   0.23712 
H          H       0.97742   0.31430   0.25505 
H          H       0.97101   0.39091   0.33515 
H          H       0.90250   0.39906   0.31810 
H          H       0.79540   0.24592   0.15693 
H          H       0.81044   0.18266   0.15907 
H          H       0.87189   0.25537   0.32976 
H          H       0.85596   0.31888   0.32667 
H          H       0.88709   0.44702   0.37004 
H          H       0.87649   0.51185   0.37657 
H          H       0.80783   0.43957   0.18707 
H          H       0.82041   0.37446   0.18622 
H          H       0.70311   0.38299   0.27427 
H          H       0.70639   0.29917   0.18249 
H          H       0.77524   0.29149   0.19862 
H          H       0.77095   0.37255   0.28625 
H          H       0.40050   0.04406   0.10150 
H          H       0.38440   0.10758   0.09914 
H          H       0.26574   0.07903   0.29358 
H          H       0.27939   0.01371   0.30361 
H          H       0.00219   0.27617   0.16789 
H          H       0.06555   0.25977   0.17088 
H          H       0.10783   0.38721   0.42827 
H          H       0.04518   0.40455   0.42969 
H          H       0.48774   0.76868   0.48180 
H          H       0.55269   0.75722   0.47401 
H          H       0.61717   0.88939   0.45800 
H          H       0.55207   0.90099   0.46526 
H          H       0.27861   0.62661   0.00042 
H          H       0.29204   0.56235   0.49255 
H          H       0.42571   0.62647   0.04208 
H          H       0.41238   0.69016   0.05421 
H          H       0.20420   0.91582   0.06283 
H          H       0.14126   0.92813   0.08046 
H          H       0.06456   0.80947   0.47957 
H          H       0.12775   0.79555   0.47025 
H          H       0.36702   0.31971   0.33718 
H          H       0.43584   0.31343   0.33737 
H          H       0.50217   0.38701   0.13602 
H          H       0.43403   0.39140   0.14491 
H          H       0.25974   0.25981   0.38715 
H          H       0.26565   0.19167   0.39078 
H          H       0.38778   0.21049   0.18799 
H          H       0.38130   0.27928   0.18543 
H          H       0.38710   0.43614   0.36374 
H          H       0.38138   0.50416   0.36880 
H          H       0.30989   0.43832   0.17282 
H          H       0.31812   0.37006   0.17778 
H          H       0.20380   0.38267   0.30819 
H          H       0.19923   0.27819   0.17305 
H          H       0.26651   0.27040   0.17191 
H          H       0.27296   0.37587   0.31289 
H          H       0.36984   0.82191   0.32254 
H          H       0.43507   0.80938   0.32220 
H          H       0.50749   0.87805   0.13387 
H          H       0.44248   0.88861   0.13984 
H          H       0.28612   0.77739   0.30786 
H          H       0.29359   0.70861   0.32278 
H          H       0.37788   0.70512   0.23142 
H          H       0.36776   0.77292   0.22058 
H          H       0.39381   0.90389   0.19148 
H          H       0.38720   0.97288   0.17325 
H          H       0.31456   0.98132   0.24694 
H          H       0.32102   0.91157   0.26872 
H          H       0.25171   0.87457   0.17908 
H          H       0.17793   0.81378   0.34744 
H          H       0.24089   0.79819   0.34915 
H          H       0.31480   0.85788   0.18193 
C          C       0.31408   0.13695   0.93947 
C          C       0.87420   0.06411   0.96942 
C          C       0.12927   0.31112   0.55278 
C          C       0.54939   0.37358   0.99572 
C          C       0.81190   0.63292   0.54105 
C          C       0.36827   0.55174   0.50874 
C          C       0.62876   0.81449   0.96658 
C          C       0.06055   0.87805   0.53998 
N          N       0.84987   0.02643   0.50828 
N          N       0.33557   0.15863   0.53175 
N          N       0.51243   0.34601   0.97692 
N          N       0.84308   0.66570   0.56741 
N          N       0.15737   0.33816   0.98739 
N          N       0.02271   0.85405   0.99967 
N          N       0.34093   0.51472   0.52880 
N          N       0.66137   0.84579   0.93992 
C          C       0.90651   0.84385   0.91032 
C          C       0.94581   0.84000   0.91509 
C          C       0.98339   0.85856   0.50144 
C          C       0.98132   0.88010   0.58779 
C          C       0.94191   0.88305   0.58598 
C          C       0.80050   0.76169   0.94042 
C          C       0.80386   0.72141   0.95443 
C          C       0.83741   0.70586   0.55599 
C          C       0.86719   0.73098   0.64327 
C          C       0.86363   0.77126   0.62978 
C          C       0.87880   0.94574   0.92112 
C          C       0.87580   0.98506   0.91968 
C          C       0.85427   0.98713   0.50596 
C          C       0.83565   0.94959   0.59167 
C          C       0.83956   0.91037   0.59607 
C          C       0.85987   0.90786   0.50696 
C          C       0.90398   0.86409   0.99969 
C          C       0.83105   0.78764   0.52470 
C          C       0.86205   0.86602   0.50333 
C          C       0.82741   0.83125   0.50333 
C          C       0.72651   0.87013   0.86340 
C          C       0.70165   0.84040   0.95107 
C          C       0.71759   0.80719   0.55287 
C          C       0.75799   0.80410   0.56671 
C          C       0.78367   0.83459   0.98201 
C          C       0.76693   0.86685   0.87674 
C          C       0.82149   0.13533   0.51593 
C          C       0.82897   0.09910   0.50958 
C          C       0.86611   0.10199   0.97801 
C          C       0.89591   0.14157   0.95467 
C          C       0.88881   0.17771   0.96319 
C          C       0.65989   0.39145   0.96223 
C          C       0.62370   0.39895   0.96968 
C          C       0.58735   0.36525   0.98755 
C          C       0.58790   0.32386   0.99872 
C          C       0.62443   0.31622   0.99447 
C          C       0.86758   0.55647   0.54174 
C          C       0.86084   0.59331   0.54657 
C          C       0.82019   0.59381   0.54352 
C          C       0.78653   0.55687   0.53702 
C          C       0.79334   0.51994   0.53359 
C          C       0.85130   0.17514   0.99270 
C          C       0.66061   0.34998   0.97577 
C          C       0.83385   0.51950   0.53506 
C          C       0.92222   0.33840   0.64941 
C          C       0.96137   0.33298   0.65896 
C          C       0.97944   0.35124   0.54548 
C          C       0.95831   0.37669   0.92507 
C          C       0.91905   0.38179   0.91563 
C          C       0.81212   0.24890   0.58471 
C          C       0.82051   0.21222   0.58535 
C          C       0.84278   0.21400   0.99505 
C          C       0.85587   0.25319   0.90345 
C          C       0.84713   0.28962   0.90232 
C          C       0.86983   0.44443   0.94035 
C          C       0.86394   0.48183   0.94419 
C          C       0.84087   0.48032   0.53135 
C          C       0.82468   0.44106   0.61648 
C          C       0.83131   0.40391   0.61450 
C          C       0.85237   0.40467   0.52233 
C          C       0.90025   0.36229   0.52723 
C          C       0.82690   0.28854   0.99705 
C          C       0.85649   0.36415   0.51391 
C          C       0.82222   0.32892   0.50477 
C          C       0.71849   0.36229   0.86604 
C          C       0.69986   0.34174   0.97753 
C          C       0.72002   0.31472   0.59449 
C          C       0.75917   0.30972   0.60251 
C          C       0.77841   0.33063   0.99192 
C          C       0.75717   0.35636   0.87283 
C          C       0.37052   0.05059   0.53570 
C          C       0.36162   0.08723   0.53378 
C          C       0.32388   0.09798   0.94635 
C          C       0.29507   0.07135   0.86192 
C          C       0.30333   0.03419   0.86635 
C          C       0.34131   0.02324   0.95274 
C          C       0.02530   0.30101   0.61723 
C          C       0.06128   0.29142   0.61761 
C          C       0.09136   0.32220   0.54939 
C          C       0.08492   0.36295   0.98118 
C          C       0.04901   0.37271   0.98155 
C          C       0.01869   0.34180   0.54951 
C          C       0.51576   0.79528   0.97558 
C          C       0.55275   0.78872   0.97151 
C          C       0.58957   0.82250   0.96478 
C          C       0.58890   0.86302   0.96221 
C          C       0.55202   0.86950   0.96768 
C          C       0.31080   0.62660   0.51059 
C          C       0.31845   0.59011   0.50614 
C          C       0.35986   0.58967   0.51665 
C          C       0.39357   0.62610   0.53393 
C          C       0.38606   0.66223   0.54164 
C          C       0.17409   0.89198   0.54646 
C          C       0.13810   0.89926   0.55549 
C          C       0.09830   0.86975   0.53128 
C          C       0.09505   0.83269   0.99846 
C          C       0.13112   0.82502   0.99163 
C          C       0.34458   0.66283   0.52889 
C          C       0.51516   0.83566   0.97452 
C          C       0.17113   0.85457   0.51559 
C          C       0.39619   0.33417   0.90420 
C          C       0.43508   0.33081   0.90270 
C          C       0.47353   0.35051   0.98284 
C          C       0.47283   0.37269   0.56954 
C          C       0.43386   0.37479   0.57536 
C          C       0.28845   0.25000   0.95020 
C          C       0.29191   0.21079   0.95258 
C          C       0.32876   0.19702   0.53396 
C          C       0.36006   0.22156   0.62081 
C          C       0.35646   0.26083   0.61846 
C          C       0.37057   0.43609   0.93326 
C          C       0.36773   0.47500   0.93693 
C          C       0.34578   0.47586   0.52399 
C          C       0.32702   0.43761   0.60659 
C          C       0.33129   0.39889   0.60741 
C          C       0.35148   0.39735   0.51597 
C          C       0.39493   0.35471   0.99518 
C          C       0.32180   0.27679   0.52624 
C          C       0.35345   0.35575   0.50719 
C          C       0.31891   0.32057   0.50998 
C          C       0.21762   0.35831   0.88841 
C          C       0.19616   0.33118   0.98917 
C          C       0.21426   0.29933   0.59198 
C          C       0.25322   0.29534   0.59393 
C          C       0.27573   0.32378   0.99744 
C          C       0.25690   0.35448   0.89138 
C          C       0.39935   0.83283   0.89460 
C          C       0.43656   0.82621   0.89294 
C          C       0.47589   0.84245   0.97847 
C          C       0.47741   0.86548   0.56593 
C          C       0.43995   0.87135   0.56944 
C          C       0.30442   0.76129   0.90380 
C          C       0.30928   0.72217   0.91114 
C          C       0.33637   0.70197   0.52789 
C          C       0.35711   0.72052   0.63985 
C          C       0.35135   0.75918   0.63372 
C          C       0.37737   0.92085   0.59298 
C          C       0.37323   0.96061   0.58238 
C          C       0.34937   0.98277   0.95955 
C          C       0.33162   0.96471   0.84554 
C          C       0.33562   0.92480   0.85697 
C          C       0.35814   0.90219   0.98086 
C          C       0.40014   0.85394   0.98677 
C          C       0.32558   0.78048   0.51481 
C          C       0.35963   0.85834   0.99423 
C          C       0.32419   0.82432   0.50247 
C          C       0.24920   0.85857   0.60477 
C          C       0.20981   0.84582   0.51269 
C          C       0.20764   0.82359   0.92154 
C          C       0.24414   0.81489   0.92191 
C          C       0.28397   0.82932   0.51014 
C          C       0.28542   0.84946   0.60568 
H          H       0.28875   0.14721   0.85347 
H          H       0.90172   0.06825   0.93542 
H          H       0.13270   0.27950   0.61055 
H          H       0.55250   0.40387   0.51138 
H          H       0.77910   0.63377   0.51711 
H          H       0.39854   0.55492   0.99270 
H          H       0.62984   0.78181   0.99046 
H          H       0.06490   0.90541   0.57515 
H          H       0.87799   0.83036   0.83897 
H          H       0.94754   0.82311   0.84985 
H          H       0.00972   0.89352   0.65931 
H          H       0.94087   0.89945   0.65419 
H          H       0.77406   0.77291   0.86349 
H          H       0.78097   0.70291   0.88383 
H          H       0.89299   0.71902   0.72201 
H          H       0.88661   0.78989   0.69958 
H          H       0.89524   0.94473   0.85306 
H          H       0.88922   0.01342   0.84854 
H          H       0.81874   0.95128   0.65685 
H          H       0.82609   0.88190   0.66711 
H          H       0.71425   0.89567   0.78451 
H          H       0.69931   0.78437   0.62379 
H          H       0.76954   0.77793   0.64387 
H          H       0.78537   0.88979   0.80671 
H          H       0.79195   0.13225   0.53634 
H          H       0.80553   0.06878   0.52780 
H          H       0.92484   0.14445   0.93068 
H          H       0.91286   0.20764   0.94748 
H          H       0.68778   0.41776   0.94934 
H          H       0.62398   0.43108   0.96104 
H          H       0.56020   0.29743   0.51279 
H          H       0.62453   0.28404   0.50526 
H          H       0.89916   0.55667   0.54444 
H          H       0.88712   0.62166   0.55063 
H          H       0.75493   0.55667   0.53419 
H          H       0.76682   0.49184   0.52744 
H          H       0.90885   0.32353   0.73712 
H          H       0.97742   0.31430   0.75505 
H          H       0.97101   0.39091   0.83515 
H          H       0.90250   0.39906   0.81810 
H          H       0.79540   0.24592   0.65693 
H          H       0.81044   0.18266   0.65907 
H          H       0.87189   0.25537   0.82976 
H          H       0.85596   0.31888   0.82667 
H          H       0.88709   0.44702   0.87004 
H          H       0.87649   0.51185   0.87657 
H          H       0.80783   0.43957   0.68707 
H          H       0.82041   0.37446   0.68622 
H          H       0.70311   0.38299   0.77427 
H          H       0.70639   0.29917   0.68249 
H          H       0.77524   0.29149   0.69863 
H          H       0.77095   0.37255   0.78624 
H          H       0.40050   0.04406   0.60150 
H          H       0.38440   0.10758   0.59913 
H          H       0.26574   0.07903   0.79358 
H          H       0.27939   0.01371   0.80361 
H          H       0.00219   0.27617   0.66789 
H          H       0.06555   0.25977   0.67088 
H          H       0.10783   0.38721   0.92827 
H          H       0.04518   0.40455   0.92970 
H          H       0.48774   0.76868   0.98180 
H          H       0.55269   0.75722   0.97401 
H          H       0.61717   0.88939   0.95800 
H          H       0.55207   0.90099   0.96527 
H          H       0.27861   0.62661   0.50042 
H          H       0.29204   0.56235   0.99255 
H          H       0.42571   0.62647   0.54207 
H          H       0.41238   0.69016   0.55422 
H          H       0.20420   0.91582   0.56283 
H          H       0.14126   0.92813   0.58046 
H          H       0.06456   0.80947   0.97958 
H          H       0.12775   0.79555   0.97025 
H          H       0.36702   0.31971   0.83718 
H          H       0.43584   0.31343   0.83737 
H          H       0.50217   0.38701   0.63602 
H          H       0.43403   0.39140   0.64491 
H          H       0.25974   0.25981   0.88715 
H          H       0.26565   0.19167   0.89079 
H          H       0.38778   0.21049   0.68799 
H          H       0.38130   0.27928   0.68542 
H          H       0.38710   0.43614   0.86374 
H          H       0.38138   0.50416   0.86881 
H          H       0.30989   0.43832   0.67282 
H          H       0.31812   0.37006   0.67778 
H          H       0.20380   0.38267   0.80819 
H          H       0.19923   0.27819   0.67305 
H          H       0.26651   0.27040   0.67191 
H          H       0.27296   0.37587   0.81289 
H          H       0.36984   0.82191   0.82254 
H          H       0.43507   0.80938   0.82220 
H          H       0.50749   0.87805   0.63387 
H          H       0.44248   0.88861   0.63984 
H          H       0.28612   0.77739   0.80787 
H          H       0.29359   0.70861   0.82278 
H          H       0.37788   0.70512   0.73142 
H          H       0.36776   0.77292   0.72058 
H          H       0.39381   0.90389   0.69147 
H          H       0.38720   0.97288   0.67324 
H          H       0.31456   0.98132   0.74694 
H          H       0.32102   0.91157   0.76872 
H          H       0.25171   0.87457   0.67908 
H          H       0.17793   0.81378   0.84744 
H          H       0.24089   0.79819   0.84915 
H          H       0.31480   0.85788   0.68193 
