data_crystal
 
_cell_length_a    29.40000
_cell_length_b    29.40000
_cell_length_c    7.98000
_cell_angle_alpha 90.00000
_cell_angle_beta  90.00000
_cell_angle_gamma 120.00000
 
_symmetry_space_group_name_Hall 'P 1'
_symmetry_space_group_name_H-M  'P 1'
 
loop_
_symmetry_equiv_pos_as_xyz
 'x,y,z' 
 
loop_
_atom_site_label
_atom_site_type_symbol
_atom_site_fract_x
_atom_site_fract_y
_atom_site_fract_z
C          C       0.26937   0.15037   0.38784 
C          C       0.84963   0.11900   0.38784 
C          C       0.88100   0.73063   0.38784 
C          C       0.28630   0.11304   0.38198 
C          C       0.88696   0.17326   0.38198 
C          C       0.82674   0.71370   0.38198 
C          C       0.33860   0.12970   0.33887 
C          C       0.87030   0.20890   0.33887 
C          C       0.79110   0.66140   0.33887 
C          C       0.37300   0.18169   0.29024 
C          C       0.81831   0.19131   0.29024 
C          C       0.80869   0.62700   0.29024 
C          C       0.35437   0.21731   0.27490 
C          C       0.78269   0.13706   0.27490 
C          C       0.86294   0.64563   0.27490 
C          C       0.30268   0.20128   0.32680 
C          C       0.79872   0.10140   0.32680 
C          C       0.89860   0.69732   0.32680 
O          O       0.38854   0.26756   0.20767 
O          O       0.73244   0.12098   0.20767 
O          O       0.87902   0.61146   0.20767 
C          C       0.36922   0.30280   0.17839 
C          C       0.69720   0.06642   0.17839 
C          C       0.93358   0.63078   0.17839 
C          C       0.41402   0.35465   0.11223 
C          C       0.64535   0.05937   0.11223 
C          C       0.94063   0.58598   0.11223 
C          C       0.39578   0.39448   0.08070 
C          C       0.60552   0.00130   0.08070 
C          C       0.99870   0.60422   0.08070 
C          C       0.44147   0.44723   0.02155 
C          C       0.55277   0.99424   0.02155 
C          C       0.00576   0.55853   0.02155 
C          C       0.42320   0.48688   0.48716 
C          C       0.51312   0.93632   0.48716 
C          C       0.06368   0.57680   0.48716 
C          C       0.46867   0.53947   0.42870 
C          C       0.46053   0.92920   0.42870 
C          C       0.07080   0.53133   0.42870 
O          O       0.25136   0.06055   0.42717 
O          O       0.93945   0.19081   0.42717 
O          O       0.80919   0.74864   0.42717 
C          C       0.25379   0.01924   0.33974 
C          C       0.98076   0.23455   0.33974 
C          C       0.76545   0.74621   0.33974 
C          C       0.19789   0.97732   0.29169 
C          C       0.02268   0.22057   0.29169 
C          C       0.77943   0.80211   0.29169 
C          C       0.19359   0.92503   0.24102 
C          C       0.07497   0.26856   0.24102 
C          C       0.73144   0.80641   0.24102 
C          C       0.13622   0.88393   0.20248 
C          C       0.11607   0.25229   0.20248 
C          C       0.74771   0.86378   0.20248 
C          C       0.13072   0.83137   0.14855 
C          C       0.16863   0.29935   0.14855 
C          C       0.70065   0.86928   0.14855 
C          C       0.07350   0.79064   0.11199 
C          C       0.20936   0.28286   0.11199 
C          C       0.71714   0.92650   0.11199 
C          C       0.42881   0.19828   0.25969 
C          C       0.80172   0.23053   0.25969 
C          C       0.76947   0.57119   0.25969 
N          N       0.46786   0.24584   0.31587 
N          N       0.75416   0.22202   0.31587 
N          N       0.77798   0.53214   0.31587 
O          O       0.43999   0.16835   0.18904 
O          O       0.83165   0.27164   0.18904 
O          O       0.72836   0.56001   0.18904 
N          N       0.52072   0.25974   0.29857 
N          N       0.74026   0.26098   0.29857 
N          N       0.73902   0.47928   0.29857 
C          C       0.55833   0.30677   0.33211 
C          C       0.69323   0.25156   0.33211 
C          C       0.74844   0.44167   0.33211 
C          C       0.61360   0.31996   0.32317 
C          C       0.68004   0.29364   0.32317 
C          C       0.70636   0.38640   0.32317 
C          C       0.62723   0.28051   0.32299 
C          C       0.71949   0.34672   0.32299 
C          C       0.65328   0.37277   0.32299 
C          C       0.21598   0.13669   0.44683 
C          C       0.86331   0.07929   0.44683 
C          C       0.92071   0.78402   0.44683 
O          O       0.19475   0.15965   0.38755 
O          O       0.84035   0.03510   0.38755 
O          O       0.96490   0.80525   0.38755 
N          N       0.19036   0.09925   0.06676 
N          N       0.90075   0.09111   0.06676 
N          N       0.90889   0.80964   0.06676 
C          C       0.11086   0.04211   0.20210 
C          C       0.95789   0.06875   0.20210 
C          C       0.93125   0.88914   0.20210 
C          C       0.05450   0.02106   0.22318 
C          C       0.97894   0.03344   0.22318 
C          C       0.96656   0.94550   0.22318 
C          C       0.03337   0.05446   0.22484 
C          C       0.94554   0.97891   0.22484 
C          C       0.02109   0.96663   0.22484 
N          N       0.13758   0.08180   0.10391 
N          N       0.91820   0.05578   0.10391 
N          N       0.94422   0.86242   0.10391 
F          F       0.37921   0.40060   0.19778 
F          F       0.59940   0.97861   0.19778 
F          F       0.02139   0.62079   0.19778 
F          F       0.36408   0.37869   0.48513 
F          F       0.62131   0.98539   0.48513 
F          F       0.01461   0.63592   0.48513 
F          F       0.45850   0.44103   0.40563 
F          F       0.55897   0.01747   0.40563 
F          F       0.98253   0.54150   0.40563 
F          F       0.47277   0.46328   0.11844 
F          F       0.53672   0.00949   0.11844 
F          F       0.99051   0.52723   0.11844 
F          F       0.40612   0.49340   0.10245 
F          F       0.50660   0.91272   0.10245 
F          F       0.08728   0.59388   0.10245 
F          F       0.39215   0.47118   0.38954 
F          F       0.52882   0.92097   0.38954 
F          F       0.07903   0.60785   0.38954 
F          F       0.48797   0.53393   0.31749 
F          F       0.46607   0.95404   0.31749 
F          F       0.04596   0.51203   0.31749 
F          F       0.49832   0.55801   0.02968 
F          F       0.44199   0.94031   0.02968 
F          F       0.05969   0.50168   0.02968 
F          F       0.45373   0.56626   0.39482 
F          F       0.43374   0.88747   0.39482 
F          F       0.11253   0.54627   0.39482 
F          F       0.20832   0.91045   0.34390 
F          F       0.08955   0.29787   0.34390 
F          F       0.70213   0.79168   0.34390 
F          F       0.21841   0.93124   0.12914 
F          F       0.06876   0.28717   0.12914 
F          F       0.71283   0.78159   0.12914 
F          F       0.12119   0.89892   0.10153 
F          F       0.10108   0.22227   0.10153 
F          F       0.77773   0.87881   0.10153 
F          F       0.11170   0.87764   0.31536 
F          F       0.12236   0.23406   0.31536 
F          F       0.76594   0.88830   0.31536 
F          F       0.14563   0.81598   0.24857 
F          F       0.18402   0.32965   0.24857 
F          F       0.67035   0.85437   0.24857 
F          F       0.15457   0.83723   0.03449 
F          F       0.16277   0.31734   0.03449 
F          F       0.68266   0.84543   0.03449 
F          F       0.07114   0.75423   0.06234 
F          F       0.24577   0.31691   0.06234 
F          F       0.68309   0.92886   0.06234 
F          F       0.05671   0.80588   0.01778 
F          F       0.19412   0.25083   0.01778 
F          F       0.74917   0.94329   0.01778 
F          F       0.04964   0.78073   0.22811 
F          F       0.21927   0.26891   0.22811 
F          F       0.73109   0.95036   0.22811 
H          H       0.35312   0.10244   0.34864 
H          H       0.89756   0.25068   0.34864 
H          H       0.74932   0.64688   0.34864 
H          H       0.28789   0.22830   0.32238 
H          H       0.77170   0.05959   0.32238 
H          H       0.94041   0.71211   0.32238 
H          H       0.35477   0.31071   0.29690 
H          H       0.68929   0.04406   0.29690 
H          H       0.95594   0.64523   0.29690 
H          H       0.33673   0.28554   0.08553 
H          H       0.71446   0.05119   0.08553 
H          H       0.94881   0.66327   0.08553 
H          H       0.42929   0.34718   0.49445 
H          H       0.65282   0.08211   0.49445 
H          H       0.91789   0.57071   0.49445 
H          H       0.44656   0.37090   0.20495 
H          H       0.62910   0.07566   0.20495 
H          H       0.92434   0.55344   0.20495 
H          H       0.27113   0.00212   0.42497 
H          H       0.99788   0.26901   0.42497 
H          H       0.73099   0.72887   0.42497 
H          H       0.27807   0.03318   0.22411 
H          H       0.96682   0.24489   0.22411 
H          H       0.75511   0.72193   0.22411 
H          H       0.18495   0.99229   0.18529 
H          H       0.00771   0.19266   0.18529 
H          H       0.80734   0.81505   0.18529 
H          H       0.17117   0.97056   0.39893 
H          H       0.02944   0.20061   0.39893 
H          H       0.79939   0.82883   0.39893 
H          H       0.45848   0.27074   0.38210 
H          H       0.72926   0.18774   0.38210 
H          H       0.81226   0.54152   0.38210 
H          H       0.54923   0.33693   0.36770 
H          H       0.66307   0.21230   0.36770 
H          H       0.78770   0.45077   0.36770 
H          H       0.59681   0.23953   0.32597 
H          H       0.76047   0.35728   0.32597 
H          H       0.64272   0.40319   0.32597 
H          H       0.20965   0.08302   0.13119 
H          H       0.91698   0.12663   0.13119 
H          H       0.87337   0.79035   0.13119 
H          H       0.12856   0.02083   0.25501 
H          H       0.97917   0.10773   0.25501 
H          H       0.89227   0.87144   0.25501 
H          H       0.05921   0.09666   0.21942 
H          H       0.90334   0.96255   0.21942 
H          H       0.03745   0.94079   0.21942 
C          C       0.26937   0.15037   0.88784 
C          C       0.84963   0.11900   0.88784 
C          C       0.88100   0.73063   0.88784 
C          C       0.28630   0.11304   0.88198 
C          C       0.88696   0.17326   0.88198 
C          C       0.82674   0.71370   0.88198 
C          C       0.33860   0.12970   0.83888 
C          C       0.87030   0.20890   0.83888 
C          C       0.79110   0.66140   0.83888 
C          C       0.37300   0.18169   0.79024 
C          C       0.81831   0.19131   0.79024 
C          C       0.80869   0.62700   0.79024 
C          C       0.35437   0.21731   0.77490 
C          C       0.78269   0.13706   0.77490 
C          C       0.86294   0.64563   0.77490 
C          C       0.30268   0.20128   0.82680 
C          C       0.79872   0.10140   0.82680 
C          C       0.89860   0.69732   0.82680 
O          O       0.38854   0.26756   0.70767 
O          O       0.73244   0.12098   0.70767 
O          O       0.87902   0.61146   0.70767 
C          C       0.36922   0.30280   0.67840 
C          C       0.69720   0.06642   0.67840 
C          C       0.93358   0.63078   0.67840 
C          C       0.41402   0.35465   0.61223 
C          C       0.64535   0.05937   0.61223 
C          C       0.94063   0.58598   0.61223 
C          C       0.39578   0.39448   0.58071 
C          C       0.60552   0.00130   0.58071 
C          C       0.99870   0.60422   0.58071 
C          C       0.44147   0.44723   0.52154 
C          C       0.55277   0.99424   0.52154 
C          C       0.00576   0.55853   0.52154 
C          C       0.42320   0.48688   0.98716 
C          C       0.51312   0.93632   0.98716 
C          C       0.06368   0.57680   0.98716 
C          C       0.46867   0.53947   0.92870 
C          C       0.46053   0.92920   0.92870 
C          C       0.07080   0.53133   0.92870 
O          O       0.25136   0.06055   0.92717 
O          O       0.93945   0.19081   0.92717 
O          O       0.80919   0.74864   0.92717 
C          C       0.25379   0.01924   0.83974 
C          C       0.98076   0.23455   0.83974 
C          C       0.76545   0.74621   0.83974 
C          C       0.19789   0.97732   0.79169 
C          C       0.02268   0.22057   0.79169 
C          C       0.77943   0.80211   0.79169 
C          C       0.19359   0.92503   0.74102 
C          C       0.07497   0.26856   0.74102 
C          C       0.73144   0.80641   0.74102 
C          C       0.13622   0.88393   0.70248 
C          C       0.11607   0.25229   0.70248 
C          C       0.74771   0.86378   0.70248 
C          C       0.13072   0.83137   0.64855 
C          C       0.16863   0.29935   0.64855 
C          C       0.70065   0.86928   0.64855 
C          C       0.07350   0.79064   0.61199 
C          C       0.20936   0.28286   0.61199 
C          C       0.71714   0.92650   0.61199 
C          C       0.42881   0.19828   0.75969 
C          C       0.80172   0.23053   0.75969 
C          C       0.76947   0.57119   0.75969 
N          N       0.46786   0.24584   0.81587 
N          N       0.75416   0.22202   0.81587 
N          N       0.77798   0.53214   0.81587 
O          O       0.43999   0.16835   0.68904 
O          O       0.83165   0.27164   0.68904 
O          O       0.72836   0.56001   0.68904 
N          N       0.52072   0.25974   0.79858 
N          N       0.74026   0.26098   0.79858 
N          N       0.73902   0.47928   0.79858 
C          C       0.55833   0.30677   0.83212 
C          C       0.69323   0.25156   0.83212 
C          C       0.74844   0.44167   0.83212 
C          C       0.61360   0.31996   0.82317 
C          C       0.68004   0.29364   0.82317 
C          C       0.70636   0.38640   0.82317 
C          C       0.62723   0.28051   0.82299 
C          C       0.71949   0.34672   0.82299 
C          C       0.65328   0.37277   0.82299 
C          C       0.21598   0.13669   0.94683 
C          C       0.86331   0.07929   0.94683 
C          C       0.92071   0.78402   0.94683 
O          O       0.19475   0.15965   0.88756 
O          O       0.84035   0.03510   0.88756 
O          O       0.96490   0.80525   0.88756 
N          N       0.19036   0.09925   0.56676 
N          N       0.90075   0.09111   0.56676 
N          N       0.90889   0.80964   0.56676 
C          C       0.11086   0.04211   0.70210 
C          C       0.95789   0.06875   0.70210 
C          C       0.93125   0.88914   0.70210 
C          C       0.05450   0.02106   0.72318 
C          C       0.97894   0.03344   0.72318 
C          C       0.96656   0.94550   0.72318 
C          C       0.03337   0.05446   0.72484 
C          C       0.94554   0.97891   0.72484 
C          C       0.02109   0.96663   0.72484 
N          N       0.13758   0.08180   0.60391 
N          N       0.91820   0.05578   0.60391 
N          N       0.94422   0.86242   0.60391 
F          F       0.37921   0.40060   0.69778 
F          F       0.59940   0.97861   0.69778 
F          F       0.02139   0.62079   0.69778 
F          F       0.36408   0.37869   0.98513 
F          F       0.62131   0.98539   0.98513 
F          F       0.01461   0.63592   0.98513 
F          F       0.45850   0.44103   0.90563 
F          F       0.55897   0.01747   0.90563 
F          F       0.98253   0.54150   0.90563 
F          F       0.47277   0.46328   0.61844 
F          F       0.53672   0.00949   0.61844 
F          F       0.99051   0.52723   0.61844 
F          F       0.40612   0.49340   0.60245 
F          F       0.50660   0.91272   0.60245 
F          F       0.08728   0.59388   0.60245 
F          F       0.39215   0.47118   0.88954 
F          F       0.52882   0.92097   0.88954 
F          F       0.07903   0.60785   0.88954 
F          F       0.48797   0.53393   0.81749 
F          F       0.46607   0.95404   0.81749 
F          F       0.04596   0.51203   0.81749 
F          F       0.49832   0.55801   0.52968 
F          F       0.44199   0.94031   0.52968 
F          F       0.05969   0.50168   0.52968 
F          F       0.45373   0.56626   0.89482 
F          F       0.43374   0.88747   0.89482 
F          F       0.11253   0.54627   0.89482 
F          F       0.20832   0.91045   0.84390 
F          F       0.08955   0.29787   0.84390 
F          F       0.70213   0.79168   0.84390 
F          F       0.21841   0.93124   0.62914 
F          F       0.06876   0.28717   0.62914 
F          F       0.71283   0.78159   0.62914 
F          F       0.12119   0.89892   0.60152 
F          F       0.10108   0.22227   0.60152 
F          F       0.77773   0.87881   0.60152 
F          F       0.11170   0.87764   0.81536 
F          F       0.12236   0.23406   0.81536 
F          F       0.76594   0.88830   0.81536 
F          F       0.14563   0.81598   0.74857 
F          F       0.18402   0.32965   0.74857 
F          F       0.67035   0.85437   0.74857 
F          F       0.15457   0.83723   0.53450 
F          F       0.16277   0.31734   0.53450 
F          F       0.68266   0.84543   0.53450 
F          F       0.07114   0.75423   0.56234 
F          F       0.24577   0.31691   0.56234 
F          F       0.68309   0.92886   0.56234 
F          F       0.05671   0.80588   0.51779 
F          F       0.19412   0.25083   0.51779 
F          F       0.74917   0.94329   0.51779 
F          F       0.04964   0.78073   0.72811 
F          F       0.21927   0.26891   0.72811 
F          F       0.73109   0.95036   0.72811 
H          H       0.35312   0.10244   0.84864 
H          H       0.89756   0.25068   0.84864 
H          H       0.74932   0.64688   0.84864 
H          H       0.28789   0.22830   0.82238 
H          H       0.77170   0.05959   0.82238 
H          H       0.94041   0.71211   0.82238 
H          H       0.35477   0.31071   0.79690 
H          H       0.68929   0.04406   0.79690 
H          H       0.95594   0.64523   0.79690 
H          H       0.33673   0.28554   0.58553 
H          H       0.71446   0.05119   0.58553 
H          H       0.94881   0.66327   0.58553 
H          H       0.42929   0.34718   0.99445 
H          H       0.65282   0.08211   0.99445 
H          H       0.91789   0.57071   0.99445 
H          H       0.44656   0.37090   0.70495 
H          H       0.62910   0.07566   0.70495 
H          H       0.92434   0.55344   0.70495 
H          H       0.27113   0.00212   0.92497 
H          H       0.99788   0.26901   0.92497 
H          H       0.73099   0.72887   0.92497 
H          H       0.27807   0.03318   0.72411 
H          H       0.96682   0.24489   0.72411 
H          H       0.75511   0.72193   0.72411 
H          H       0.18495   0.99229   0.68529 
H          H       0.00771   0.19266   0.68529 
H          H       0.80734   0.81505   0.68529 
H          H       0.17117   0.97056   0.89893 
H          H       0.02944   0.20061   0.89893 
H          H       0.79939   0.82883   0.89893 
H          H       0.45848   0.27074   0.88209 
H          H       0.72926   0.18774   0.88209 
H          H       0.81226   0.54152   0.88209 
H          H       0.54923   0.33693   0.86770 
H          H       0.66307   0.21230   0.86770 
H          H       0.78770   0.45077   0.86770 
H          H       0.59681   0.23953   0.82597 
H          H       0.76047   0.35728   0.82597 
H          H       0.64272   0.40319   0.82597 
H          H       0.20965   0.08302   0.63119 
H          H       0.91698   0.12663   0.63119 
H          H       0.87337   0.79035   0.63119 
H          H       0.12856   0.02083   0.75501 
H          H       0.97917   0.10773   0.75501 
H          H       0.89227   0.87144   0.75501 
H          H       0.05921   0.09666   0.71942 
H          H       0.90334   0.96255   0.71942 
H          H       0.03745   0.94079   0.71942 
