data_crystal
 
_cell_length_a    29.63000
_cell_length_b    29.63000
_cell_length_c    9.08000
_cell_angle_alpha 90.00000
_cell_angle_beta  90.00000
_cell_angle_gamma 120.00000
 
_space_group_name_Hall 'P 1'
_space_group_name_H-M_alt  'P 1'
 
loop_
_symmetry_equiv_pos_as_xyz
 'x,y,z' 
 
loop_
_atom_site_label
_atom_site_type_symbol
_atom_site_fract_x
_atom_site_fract_y
_atom_site_fract_z
C          C       0.27190   0.14528   0.37513 
C          C       0.85472   0.12662   0.37513 
C          C       0.87338   0.72810   0.37513 
C          C       0.29209   0.11196   0.40516 
C          C       0.88804   0.18013   0.40516 
C          C       0.81987   0.70791   0.40516 
C          C       0.34382   0.12777   0.36834 
C          C       0.87223   0.21605   0.36834 
C          C       0.78395   0.65618   0.36834 
C          C       0.37520   0.17490   0.29506 
C          C       0.82510   0.20030   0.29506 
C          C       0.79970   0.62480   0.29506 
C          C       0.35406   0.20614   0.25174 
C          C       0.79386   0.14792   0.25174 
C          C       0.85208   0.64594   0.25174 
C          C       0.30258   0.19116   0.29409 
C          C       0.80884   0.11142   0.29409 
C          C       0.88858   0.69742   0.29409 
O          O       0.38535   0.25062   0.16503 
O          O       0.74938   0.13473   0.16503 
O          O       0.86527   0.61465   0.16503 
C          C       0.36683   0.28556   0.13064 
C          C       0.71444   0.08127   0.13064 
C          C       0.91873   0.63317   0.13064 
C          C       0.41058   0.33371   0.05520 
C          C       0.66629   0.07687   0.05520 
C          C       0.92313   0.58942   0.05520 
C          C       0.39545   0.37555   0.02369 
C          C       0.62445   0.01990   0.02369 
C          C       0.98010   0.60455   0.02369 
C          C       0.44149   0.42507   0.45902 
C          C       0.57493   0.01642   0.45902 
C          C       0.98358   0.55851   0.45902 
C          C       0.42460   0.45853   0.41175 
C          C       0.54147   0.96607   0.41175 
C          C       0.03393   0.57540   0.41175 
O          O       0.26130   0.06390   0.47529 
O          O       0.93610   0.19740   0.47529 
O          O       0.80260   0.73870   0.47529 
C          C       0.25648   0.01891   0.40220 
C          C       0.98109   0.23757   0.40220 
C          C       0.76243   0.74352   0.40220 
C          C       0.19856   0.98004   0.37872 
C          C       0.01996   0.21852   0.37872 
C          C       0.78148   0.80144   0.37872 
C          C       0.18901   0.92803   0.31358 
C          C       0.07197   0.26098   0.31358 
C          C       0.73902   0.81099   0.31358 
C          C       0.13097   0.89099   0.28224 
C          C       0.10901   0.23998   0.28224 
C          C       0.76002   0.86903   0.28224 
C          C       0.43053   0.19123   0.26724 
C          C       0.80877   0.23930   0.26724 
C          C       0.76070   0.56947   0.26724 
N          N       0.46885   0.24174   0.28930 
N          N       0.75826   0.22711   0.28930 
N          N       0.77289   0.53115   0.28930 
O          O       0.44207   0.15877   0.22924 
O          O       0.84123   0.28330   0.22924 
O          O       0.71670   0.55793   0.22924 
N          N       0.52150   0.25627   0.27304 
N          N       0.74373   0.26523   0.27304 
N          N       0.73477   0.47850   0.27304 
C          C       0.55830   0.30442   0.28472 
C          C       0.69558   0.25388   0.28472 
C          C       0.74612   0.44170   0.28472 
C          C       0.61359   0.31876   0.27639 
C          C       0.68124   0.29483   0.27639 
C          C       0.70517   0.38641   0.27639 
C          C       0.62844   0.28055   0.27602 
C          C       0.71945   0.34789   0.27602 
C          C       0.65211   0.37156   0.27602 
C          C       0.21774   0.13159   0.41578 
C          C       0.86841   0.08615   0.41578 
C          C       0.91385   0.78226   0.41578 
O          O       0.19514   0.14830   0.34070 
O          O       0.85170   0.04684   0.34070 
O          O       0.95316   0.80486   0.34070 
N          N       0.19255   0.10072   0.03433 
N          N       0.89928   0.09183   0.03433 
N          N       0.90817   0.80745   0.03433 
C          C       0.11048   0.04077   0.13216 
C          C       0.95923   0.06971   0.13216 
C          C       0.93029   0.88952   0.13216 
C          C       0.05414   0.02028   0.14364 
C          C       0.97972   0.03386   0.14364 
C          C       0.96614   0.94586   0.14364 
C          C       0.03371   0.05397   0.14465 
C          C       0.94603   0.97974   0.14465 
C          C       0.02026   0.96629   0.14465 
N          N       0.13923   0.08227   0.05539 
N          N       0.91773   0.05696   0.05539 
N          N       0.94304   0.86077   0.05539 
F          F       0.37972   0.38882   0.15173 
F          F       0.61118   0.99090   0.15173 
F          F       0.00910   0.62028   0.15173 
F          F       0.35406   0.35582   0.42633 
F          F       0.64418   0.99824   0.42633 
F          F       0.00176   0.64594   0.42633 
F          F       0.46297   0.41292   0.34140 
F          F       0.58708   0.05005   0.34140 
F          F       0.94995   0.53703   0.34140 
F          F       0.47972   0.45033   0.06434 
F          F       0.54967   0.02939   0.06434 
F          F       0.97061   0.52028   0.06434 
F          F       0.20635   0.90393   0.41038 
F          F       0.09607   0.30242   0.41038 
F          F       0.69758   0.79365   0.41038 
F          F       0.21671   0.93750   0.18412 
F          F       0.06250   0.27921   0.18412 
F          F       0.72079   0.78329   0.18412 
F          F       0.10291   0.87670   0.41205 
F          F       0.12330   0.22621   0.41205 
F          F       0.77379   0.89709   0.41205 
F          F       0.11141   0.91468   0.19174 
F          F       0.08532   0.19673   0.19174 
F          F       0.80327   0.88859   0.19174 
H          H       0.35987   0.10337   0.39982 
H          H       0.89663   0.25650   0.39982 
H          H       0.74350   0.64013   0.39982 
H          H       0.28581   0.21497   0.26446 
H          H       0.78503   0.07084   0.26446 
H          H       0.92916   0.71419   0.26446 
H          H       0.35589   0.29785   0.23345 
H          H       0.70215   0.05804   0.23345 
H          H       0.94196   0.64411   0.23345 
H          H       0.33259   0.26614   0.05600 
H          H       0.73386   0.06645   0.05600 
H          H       0.93355   0.66741   0.05600 
H          H       0.42047   0.32135   0.45031 
H          H       0.67865   0.09912   0.45031 
H          H       0.90088   0.57953   0.45031 
H          H       0.44570   0.35028   0.12667 
H          H       0.64972   0.09542   0.12667 
H          H       0.90458   0.55430   0.12667 
H          H       0.27418   0.00137   0.47307 
H          H       0.99863   0.27281   0.47307 
H          H       0.72719   0.72582   0.47307 
H          H       0.27665   0.02846   0.29359 
H          H       0.97154   0.24819   0.29359 
H          H       0.75181   0.72335   0.29359 
H          H       0.18290   0.99828   0.30306 
H          H       0.00172   0.18462   0.30306 
H          H       0.81538   0.81710   0.30306 
H          H       0.17774   0.97290   0.48531 
H          H       0.02710   0.20484   0.48531 
H          H       0.79516   0.82226   0.48531 
H          H       0.45923   0.26915   0.32764 
H          H       0.73085   0.19008   0.32764 
H          H       0.80992   0.54077   0.32764 
H          H       0.54850   0.33468   0.30334 
H          H       0.66532   0.21382   0.30334 
H          H       0.78618   0.45150   0.30334 
H          H       0.59900   0.23961   0.27848 
H          H       0.76039   0.35939   0.27848 
H          H       0.64061   0.40100   0.27848 
H          H       0.21218   0.09004   0.10937 
H          H       0.90996   0.12214   0.10937 
H          H       0.87786   0.78782   0.10937 
H          H       0.12685   0.01801   0.17529 
H          H       0.98199   0.10884   0.17529 
H          H       0.89116   0.87315   0.17529 
H          H       0.05978   0.09577   0.14177 
H          H       0.90423   0.96401   0.14177 
H          H       0.03599   0.94022   0.14177 
F          F       0.15346   0.27811   0.21344 
F          F       0.72189   0.87535   0.21344 
F          F       0.12465   0.84654   0.21344 
C          C       0.27190   0.14528   0.87514 
C          C       0.85472   0.12662   0.87514 
C          C       0.87338   0.72810   0.87514 
C          C       0.29209   0.11196   0.90516 
C          C       0.88804   0.18013   0.90516 
C          C       0.81987   0.70791   0.90516 
C          C       0.34382   0.12777   0.86835 
C          C       0.87223   0.21605   0.86835 
C          C       0.78395   0.65618   0.86835 
C          C       0.37520   0.17490   0.79506 
C          C       0.82510   0.20030   0.79506 
C          C       0.79970   0.62480   0.79506 
C          C       0.35406   0.20614   0.75174 
C          C       0.79386   0.14792   0.75174 
C          C       0.85208   0.64594   0.75174 
C          C       0.30258   0.19116   0.79409 
C          C       0.80884   0.11142   0.79409 
C          C       0.88858   0.69742   0.79409 
O          O       0.38535   0.25062   0.66504 
O          O       0.74938   0.13473   0.66504 
O          O       0.86527   0.61465   0.66504 
C          C       0.36683   0.28556   0.63064 
C          C       0.71444   0.08127   0.63064 
C          C       0.91873   0.63317   0.63064 
C          C       0.41058   0.33371   0.55520 
C          C       0.66629   0.07687   0.55520 
C          C       0.92313   0.58942   0.55520 
C          C       0.39545   0.37555   0.52369 
C          C       0.62445   0.01990   0.52369 
C          C       0.98010   0.60455   0.52369 
C          C       0.44149   0.42507   0.95903 
C          C       0.57493   0.01642   0.95903 
C          C       0.98358   0.55851   0.95903 
C          C       0.42460   0.45853   0.91175 
C          C       0.54147   0.96607   0.91175 
C          C       0.03393   0.57540   0.91175 
O          O       0.26130   0.06390   0.97529 
O          O       0.93610   0.19740   0.97529 
O          O       0.80260   0.73870   0.97529 
C          C       0.25648   0.01891   0.90220 
C          C       0.98109   0.23757   0.90220 
C          C       0.76243   0.74352   0.90220 
C          C       0.19856   0.98004   0.87872 
C          C       0.01996   0.21852   0.87872 
C          C       0.78148   0.80144   0.87872 
C          C       0.18901   0.92803   0.81358 
C          C       0.07197   0.26098   0.81358 
C          C       0.73902   0.81099   0.81358 
C          C       0.13097   0.89099   0.78224 
C          C       0.10901   0.23998   0.78224 
C          C       0.76002   0.86903   0.78224 
C          C       0.43053   0.19123   0.76724 
C          C       0.80877   0.23930   0.76724 
C          C       0.76070   0.56947   0.76724 
N          N       0.46885   0.24174   0.78931 
N          N       0.75826   0.22711   0.78931 
N          N       0.77289   0.53115   0.78931 
O          O       0.44207   0.15877   0.72924 
O          O       0.84123   0.28330   0.72924 
O          O       0.71670   0.55793   0.72924 
N          N       0.52150   0.25627   0.77304 
N          N       0.74373   0.26523   0.77304 
N          N       0.73477   0.47850   0.77304 
C          C       0.55830   0.30442   0.78472 
C          C       0.69558   0.25388   0.78472 
C          C       0.74612   0.44170   0.78472 
C          C       0.61359   0.31876   0.77639 
C          C       0.68124   0.29483   0.77639 
C          C       0.70517   0.38641   0.77639 
C          C       0.62844   0.28055   0.77602 
C          C       0.71945   0.34789   0.77602 
C          C       0.65211   0.37156   0.77602 
C          C       0.21774   0.13159   0.91578 
C          C       0.86841   0.08615   0.91578 
C          C       0.91385   0.78226   0.91578 
O          O       0.19514   0.14830   0.84070 
O          O       0.85170   0.04684   0.84070 
O          O       0.95316   0.80486   0.84070 
N          N       0.19255   0.10072   0.53433 
N          N       0.89928   0.09183   0.53433 
N          N       0.90817   0.80745   0.53433 
C          C       0.11048   0.04077   0.63216 
C          C       0.95923   0.06971   0.63216 
C          C       0.93029   0.88952   0.63216 
C          C       0.05414   0.02028   0.64364 
C          C       0.97972   0.03386   0.64364 
C          C       0.96614   0.94586   0.64364 
C          C       0.03371   0.05397   0.64465 
C          C       0.94603   0.97974   0.64465 
C          C       0.02026   0.96629   0.64465 
N          N       0.13923   0.08227   0.55539 
N          N       0.91773   0.05696   0.55539 
N          N       0.94304   0.86077   0.55539 
F          F       0.37972   0.38882   0.65173 
F          F       0.61118   0.99090   0.65173 
F          F       0.00910   0.62028   0.65173 
F          F       0.35406   0.35582   0.92633 
F          F       0.64418   0.99824   0.92633 
F          F       0.00176   0.64594   0.92633 
F          F       0.46297   0.41292   0.84140 
F          F       0.58708   0.05005   0.84140 
F          F       0.94995   0.53703   0.84140 
F          F       0.47972   0.45033   0.56434 
F          F       0.54967   0.02939   0.56434 
F          F       0.97061   0.52028   0.56434 
F          F       0.20635   0.90393   0.91038 
F          F       0.09607   0.30242   0.91038 
F          F       0.69758   0.79365   0.91038 
F          F       0.21671   0.93750   0.68412 
F          F       0.06250   0.27921   0.68412 
F          F       0.72079   0.78329   0.68412 
F          F       0.10291   0.87670   0.91205 
F          F       0.12330   0.22621   0.91205 
F          F       0.77379   0.89709   0.91205 
F          F       0.11141   0.91468   0.69174 
F          F       0.08532   0.19673   0.69174 
F          F       0.80327   0.88859   0.69174 
H          H       0.35987   0.10337   0.89982 
H          H       0.89663   0.25650   0.89982 
H          H       0.74350   0.64013   0.89982 
H          H       0.28581   0.21497   0.76446 
H          H       0.78503   0.07084   0.76446 
H          H       0.92916   0.71419   0.76446 
H          H       0.35589   0.29785   0.73346 
H          H       0.70215   0.05804   0.73346 
H          H       0.94196   0.64411   0.73346 
H          H       0.33259   0.26614   0.55600 
H          H       0.73386   0.06645   0.55600 
H          H       0.93355   0.66741   0.55600 
H          H       0.42047   0.32135   0.95031 
H          H       0.67865   0.09912   0.95031 
H          H       0.90088   0.57953   0.95031 
H          H       0.44570   0.35028   0.62667 
H          H       0.64972   0.09542   0.62667 
H          H       0.90458   0.55430   0.62667 
H          H       0.27418   0.00137   0.97307 
H          H       0.99863   0.27281   0.97307 
H          H       0.72719   0.72582   0.97307 
H          H       0.27665   0.02846   0.79360 
H          H       0.97154   0.24819   0.79360 
H          H       0.75181   0.72335   0.79360 
H          H       0.18290   0.99828   0.80306 
H          H       0.00172   0.18462   0.80306 
H          H       0.81538   0.81710   0.80306 
H          H       0.17774   0.97290   0.98532 
H          H       0.02710   0.20484   0.98532 
H          H       0.79516   0.82226   0.98532 
H          H       0.45923   0.26915   0.82764 
H          H       0.73085   0.19008   0.82764 
H          H       0.80992   0.54077   0.82764 
H          H       0.54850   0.33468   0.80334 
H          H       0.66532   0.21382   0.80334 
H          H       0.78618   0.45150   0.80334 
H          H       0.59900   0.23961   0.77848 
H          H       0.76039   0.35939   0.77848 
H          H       0.64061   0.40100   0.77848 
H          H       0.21218   0.09004   0.60937 
H          H       0.90996   0.12214   0.60937 
H          H       0.87786   0.78782   0.60937 
H          H       0.12685   0.01801   0.67529 
H          H       0.98199   0.10884   0.67529 
H          H       0.89116   0.87315   0.67529 
H          H       0.05978   0.09577   0.64177 
H          H       0.90423   0.96401   0.64177 
H          H       0.03599   0.94022   0.64177 
F          F       0.15346   0.27811   0.71344 
F          F       0.72189   0.87535   0.71344 
F          F       0.12465   0.84654   0.71344 
