data_T-COF_1
_audit_creation_date              0000-00-00
_audit_creation_method            'LanYouShi'
_symmetry_space_group_name_H-M    'P1'
_cell_length_a                    14.5584002
_cell_length_b                    14.5584002
_cell_length_c                    3.5000000
_cell_angle_alpha                 90.0000000
_cell_angle_beta                  90.0000000
_cell_angle_gamma                 120.0000000
loop_
_atom_site_label
_atom_site_type_symbol
_atom_site_fract_x
_atom_site_fract_y
_atom_site_fract_z
_atom_site_U_iso_or_equiv
_atom_site_adp_type
_atom_site_occupancy
        O1          O  0.7096822  0.2647285  0.5000008    0.00000       Uiso       1.00
        O2          O  0.7352713  0.4449535  0.5000010    0.00000       Uiso       1.00
        O3          O  0.5550463  0.2903177  0.5000002    0.00000       Uiso       1.00
        O1          O  0.2647286  0.7096823  0.5000004    0.00000       Uiso       1.00
        O2          O  0.4449536  0.7352714  0.5000010    0.00000       Uiso       1.00
        O3          O  0.2903177  0.5550464  0.4999993    0.00000       Uiso       1.00
        B1          B  0.7817881  0.3777490  0.5000008    0.00000       Uiso       1.00
        B2          B  0.6222509  0.4040390  0.5000005    0.00000       Uiso       1.00
        B3          B  0.5959609  0.2182118  0.5000003    0.00000       Uiso       1.00
        B1          B  0.3777491  0.7817881  0.5000009    0.00000       Uiso       1.00
        B2          B  0.4040390  0.6222509  0.5000002    0.00000       Uiso       1.00
        B3          B  0.2182119  0.5959610  0.4999999    0.00000       Uiso       1.00
        C1          C  0.8995921  0.4203247  0.5000003    0.00000       Uiso       1.00
        C1          C  0.5796752  0.4792673  0.4999998    0.00000       Uiso       1.00
        C2          C  0.4792673  0.5796752  0.5000004    0.00000       Uiso       1.00
        C1          C  0.5207326  0.1004078  0.4999996    0.00000       Uiso       1.00
        C1          C  0.4203249  0.8995922  0.5000012    0.00000       Uiso       1.00
        C1          C  0.1004078  0.5207328  0.5000004    0.00000       Uiso       1.00
        S1          S -0.0000001  0.5540060  0.5000005    0.00000       Uiso       1.00
        S1          S  0.4459939  0.4459939  0.5000001    0.00000       Uiso       1.00
        S1          S  0.5540062  0.0000000  0.5000021    0.00000       Uiso       1.00
        C1          C  0.9447454  0.3553000  0.4999992    0.00000       Uiso       1.00
        C2          C  0.6446999  0.5894452  0.4999988    0.00000       Uiso       1.00
        C3          C  0.4105546  0.0552547  0.4999973    0.00000       Uiso       1.00
        C4          C  0.3553000  0.9447452  0.5000002    0.00000       Uiso       1.00
        C5          C  0.5894452  0.6447000  0.5000006    0.00000       Uiso       1.00
        C6          C  0.0552548  0.4105548  0.5000008    0.00000       Uiso       1.00
        H1          H  0.9006339  0.2741056  0.4999974    0.00000       Uiso       1.00
        H2          H  0.7258944  0.6265281  0.4999969    0.00000       Uiso       1.00
        H3          H  0.3734718  0.0993663  0.4999940    0.00000       Uiso       1.00
        H4          H  0.2741055  0.9006336  0.5000013    0.00000       Uiso       1.00
        H5          H  0.6265281  0.7258945  0.5000018    0.00000       Uiso       1.00
        H6          H  0.0993664  0.3734721  0.5000022    0.00000       Uiso       1.00
