data_crystal
 
_cell_length_a    13.86700
_cell_length_b    14.52900
_cell_length_c    22.82500
_cell_angle_alpha 90.41300
_cell_angle_beta  90.01100
_cell_angle_gamma 90.09200
 
_symmetry_space_group_name_Hall 'P 1'
_symmetry_space_group_name_H-M  'P 1'
 
loop_
_symmetry_equiv_pos_as_xyz
 'x,y,z' 
 
loop_
_atom_site_label
_atom_site_type_symbol
_atom_site_fract_x
_atom_site_fract_y
_atom_site_fract_z
C          C       0.99686   0.99991   0.99986 
C          C       0.50315   0.50007   0.50013 
C          C       0.05619   0.05903   0.04215 
C          C       0.93787   0.94137   0.04209 
C          C       0.05795   0.94265   0.95759 
C          C       0.93613   0.05661   0.95761 
C          C       0.56206   0.44163   0.54237 
C          C       0.44393   0.55907   0.54241 
C          C       0.56395   0.55687   0.45789 
C          C       0.44195   0.44269   0.45786 
C          C       0.03375   0.03694   0.10069 
C          C       0.96106   0.96405   0.10066 
C          C       0.03488   0.96407   0.89904 
C          C       0.96000   0.03470   0.89905 
C          C       0.53892   0.46423   0.60093 
C          C       0.46634   0.53701   0.60096 
C          C       0.54002   0.53490   0.39933 
C          C       0.46505   0.46414   0.39931 
C          C       0.12344   0.12662   0.02850 
C          C       0.87073   0.87337   0.02843 
C          C       0.12718   0.87714   0.97127 
C          C       0.86700   0.12253   0.97128 
C          C       0.62907   0.37374   0.52868 
C          C       0.37677   0.62653   0.52875 
C          C       0.63320   0.62292   0.47154 
C          C       0.37263   0.37705   0.47152 
C          C       0.16967   0.17357   0.07461 
C          C       0.82547   0.82657   0.07452 
C          C       0.17477   0.83158   0.92519 
C          C       0.82041   0.16804   0.92521 
C          C       0.67427   0.32697   0.57475 
C          C       0.33060   0.67339   0.57484 
C          C       0.67984   0.66847   0.42545 
C          C       0.32498   0.33139   0.42543 
C          C       0.14789   0.15218   0.13428 
C          C       0.84814   0.84846   0.13419 
C          C       0.15237   0.85228   0.86551 
C          C       0.84376   0.14695   0.86553 
C          C       0.65166   0.34878   0.63443 
C          C       0.35235   0.65205   0.63452 
C          C       0.65643   0.64730   0.36578 
C          C       0.34741   0.35214   0.36575 
C          C       0.07933   0.08321   0.14656 
C          C       0.91646   0.91793   0.14649 
C          C       0.08184   0.91920   0.85319 
C          C       0.91405   0.07953   0.85322 
C          C       0.58347   0.41813   0.64676 
C          C       0.42082   0.58320   0.64682 
C          C       0.58601   0.57977   0.35349 
C          C       0.41803   0.41919   0.35345 
C          C       0.19319   0.19840   0.18124 
C          C       0.80425   0.80208   0.18115 
C          C       0.19880   0.80712   0.81861 
C          C       0.79878   0.19239   0.81862 
C          C       0.69553   0.30236   0.68134 
C          C       0.30705   0.69822   0.68143 
C          C       0.70142   0.69271   0.31882 
C          C       0.30098   0.30694   0.31880 
C          C       0.22773   0.23358   0.22573 
C          C       0.77131   0.76665   0.22567 
C          C       0.23392   0.77221   0.77424 
C          C       0.76528   0.22765   0.77422 
C          C       0.72861   0.26673   0.72574 
C          C       0.27237   0.73353   0.72580 
C          C       0.73479   0.72778   0.27429 
C          C       0.26601   0.27215   0.27431 
C          C       0.26075   0.26534   0.00797 
C          C       0.73411   0.73357   0.00783 
C          C       0.26853   0.74263   0.99189 
C          C       0.72633   0.25814   0.99191 
C          C       0.76540   0.23414   0.50804 
C          C       0.23966   0.76499   0.50817 
C          C       0.77408   0.75879   0.49213 
C          C       0.23111   0.24226   0.49209 
O          O       0.23665   0.24102   0.06687 
O          O       0.75878   0.75868   0.06674 
O          O       0.24367   0.76612   0.93297 
O          O       0.75180   0.23394   0.93300 
O          O       0.74083   0.25918   0.56696 
O          O       0.26371   0.74072   0.56708 
O          O       0.74857   0.73449   0.43322 
O          O       0.25600   0.26580   0.43319 
H          H       0.13932   0.14241   0.98283 
H          H       0.85431   0.85700   0.98276 
H          H       0.14349   0.86184   0.01696 
H          H       0.85012   0.13833   0.01696 
H          H       0.64543   0.35745   0.48300 
H          H       0.36092   0.64227   0.48307 
H          H       0.65015   0.63878   0.51721 
H          H       0.35629   0.36170   0.51719 
H          H       0.06349   0.06777   0.19233 
H          H       0.93305   0.93369   0.19227 
H          H       0.06554   0.93413   0.80741 
H          H       0.93115   0.06437   0.80744 
H          H       0.56692   0.43384   0.69254 
H          H       0.43663   0.56778   0.69260 
H          H       0.56887   0.56454   0.30771 
H          H       0.43435   0.43415   0.30767 
H          H       0.31499   0.31989   0.01182 
H          H       0.68038   0.67865   0.01165 
H          H       0.32435   0.68972   0.98807 
H          H       0.67099   0.31141   0.98811 
H          H       0.81903   0.17930   0.51184 
H          H       0.18550   0.81945   0.51201 
H          H       0.82950   0.81216   0.48831 
H          H       0.17523   0.18924   0.48827 
H          H       0.29136   0.20631   0.98375 
H          H       0.70270   0.79211   0.98405 
H          H       0.20594   0.71467   0.01568 
H          H       0.78882   0.28586   0.01618 
H          H       0.79689   0.29274   0.48427 
H          H       0.20897   0.70592   0.48395 
H          H       0.71164   0.78643   0.51638 
H          H       0.29368   0.21442   0.51590 
H          H       0.19734   0.29145   0.98420 
H          H       0.79742   0.70768   0.98364 
H          H       0.29741   0.80258   0.01606 
H          H       0.69666   0.19861   0.01560 
H          H       0.70201   0.20819   0.48385 
H          H       0.30311   0.79122   0.48442 
H          H       0.80368   0.69934   0.51585 
H          H       0.20230   0.30215   0.51626 
