data_crystal
 
_cell_length_a    30.85740
_cell_length_b    18.77650
_cell_length_c    8.88720
_cell_angle_alpha 90.00000
_cell_angle_beta  90.00000
_cell_angle_gamma 90.00000
 
_space_group_name_Hall 'P 1'
_space_group_name_H-M_alt  'P 1'
 
loop_
_symmetry_equiv_pos_as_xyz
 'x,y,z' 
 
loop_
_atom_site_label
_atom_site_type_symbol
_atom_site_fract_x
_atom_site_fract_y
_atom_site_fract_z
C          C       0.69044   0.79617   0.04397 
N          N       0.69046   0.76161   0.43516 
C          C       0.65908   0.72251   0.39755 
C          C       0.62289   0.71809   0.47507 
C          C       0.59562   0.67510   0.44306 
C          C       0.60155   0.63839   0.32496 
C          C       0.63664   0.64605   0.24243 
C          C       0.66545   0.68626   0.28078 
C          C       0.39170   0.63248   0.31102 
C          C       0.38769   0.68332   0.22999 
C          C       0.35735   0.72417   0.26129 
C          C       0.32930   0.71381   0.36990 
C          C       0.33145   0.66210   0.44489 
C          C       0.36280   0.62248   0.41840 
N          N       0.29794   0.75479   0.40420 
C          C       0.30453   0.80846   0.43042 
C          C       0.75476   0.90734   0.21830 
C          C       0.72263   0.87158   0.18795 
C          C       0.72507   0.83312   0.07340 
C          C       0.76076   0.83000   0.49208 
C          C       0.79230   0.86752   0.01971 
C          C       0.79814   0.09697   0.45387 
C          C       0.76800   0.13221   0.39361 
C          C       0.72797   0.12892   0.44137 
C          C       0.71880   0.09116   0.05194 
C          C       0.74935   0.05810   0.11629 
C          C       0.20330   0.07357   0.06154 
C          C       0.16848   0.03717   0.10264 
C          C       0.20561   0.91945   0.05736 
C          C       0.17019   0.95469   0.10684 
C          C       0.13281   0.06566   0.14810 
C          C       0.13686   0.92510   0.16171 
C          C       0.07369   0.86810   0.31907 
O          O       0.06986   0.92747   0.28283 
O          O       0.99958   0.86252   0.34070 
C          C       0.03825   0.85170   0.41334 
O          O       0.92595   0.92575   0.33113 
C          C       0.92722   0.86543   0.35818 
C          C       0.96695   0.84937   0.43149 
C          C       0.89068   0.03119   0.24549 
C          C       0.89123   0.95035   0.26592 
C          C       0.47067   0.36021   0.26822 
C          C       0.48487   0.30375   0.27189 
C          C       0.52590   0.30513   0.27396 
C          C       0.53641   0.36213   0.26057 
N          N       0.50243   0.39587   0.25651 
C          C       0.42892   0.37719   0.27255 
C          C       0.57682   0.38193   0.25829 
C          C       0.58626   0.44099   0.24708 
C          C       0.62494   0.46065   0.22493 
C          C       0.62464   0.51864   0.24353 
C          C       0.58496   0.53812   0.26445 
N          N       0.55941   0.48913   0.26924 
C          C       0.30699   0.17565   0.47940 
N          N       0.31202   0.20423   0.36206 
C          C       0.34283   0.24594   0.33854 
C          C       0.37731   0.24960   0.42539 
C          C       0.40444   0.29400   0.40634 
C          C       0.39970   0.33379   0.29392 
C          C       0.36609   0.32789   0.20316 
C          C       0.33763   0.28545   0.22742 
C          C       0.60950   0.34178   0.27533 
C          C       0.61362   0.29248   0.18881 
C          C       0.64486   0.25223   0.21324 
C          C       0.67356   0.26195   0.32012 
C          C       0.67109   0.31215   0.40080 
C          C       0.63892   0.35089   0.38148 
N          N       0.70433   0.22019   0.35398 
C          C       0.69606   0.16768   0.38632 
C          C       0.22844   0.06057   0.44451 
C          C       0.26254   0.09351   0.41601 
C          C       0.27087   0.14133   0.00089 
C          C       0.24479   0.15615   0.11263 
C          C       0.21145   0.12281   0.14261 
C          C       0.19963   0.87475   0.45963 
C          C       0.23173   0.83885   0.41734 
C          C       0.27075   0.84737   0.47068 
C          C       0.27717   0.89260   0.06610 
C          C       0.24477   0.92779   0.11091 
C          C       0.78876   0.90819   0.12940 
C          C       0.82312   0.94531   0.16415 
C          C       0.78928   0.05892   0.06541 
C          C       0.82301   0.02676   0.13807 
C          C       0.85755   0.91850   0.22373 
C          C       0.85721   0.05788   0.17778 
C          C       0.92134   0.12252   0.30571 
O          O       0.92436   0.06140   0.29548 
O          O       0.99534   0.12897   0.30176 
C          C       0.95866   0.14449   0.38120 
O          O       0.06608   0.06346   0.26787 
C          C       0.06763   0.12353   0.29737 
C          C       0.03021   0.14174   0.38150 
C          C       0.10262   0.95467   0.21649 
C          C       0.10059   0.03586   0.20902 
C          C       0.53044   0.61319   0.29109 
C          C       0.51640   0.66954   0.30214 
C          C       0.47540   0.66827   0.30776 
C          C       0.46458   0.61163   0.28856 
N          N       0.49848   0.57791   0.27765 
C          C       0.57225   0.59611   0.29153 
C          C       0.42401   0.59213   0.28775 
C          C       0.41420   0.53336   0.26979 
C          C       0.37533   0.51418   0.24767 
C          C       0.37611   0.45555   0.24846 
C          C       0.41601   0.43590   0.26090 
N          N       0.44136   0.48476   0.27671 
H          H       0.66521   0.79857   0.11686 
H          H       0.61585   0.74551   0.06473 
H          H       0.56985   0.67014   0.01304 
H          H       0.64143   0.62253   0.14432 
H          H       0.69263   0.68985   0.21731 
H          H       0.40806   0.69142   0.14209 
H          H       0.35524   0.76330   0.19928 
H          H       0.30977   0.65356   0.02840 
H          H       0.36498   0.58437   0.48425 
H          H       0.33522   0.82384   0.43456 
H          H       0.75338   0.93347   0.31360 
H          H       0.69620   0.87310   0.25621 
H          H       0.76409   0.79930   0.40599 
H          H       0.81950   0.86476   0.45596 
H          H       0.82882   0.10089   0.41694 
H          H       0.77593   0.16183   0.30963 
H          H       0.68841   0.09003   0.09494 
H          H       0.74184   0.03597   0.21247 
H          H       0.13068   0.11178   0.13778 
H          H       0.13844   0.87873   0.16503 
H          H       0.10183   0.85998   0.38096 
H          H       0.07405   0.84127   0.22111 
H          H       0.04162   0.80537   0.44088 
H          H       0.03974   0.87782   0.01262 
H          H       0.92518   0.84121   0.25629 
H          H       0.90193   0.85376   0.43011 
H          H       0.96702   0.80259   0.45548 
H          H       0.96842   0.87386   0.03345 
H          H       0.46790   0.26468   0.27294 
H          H       0.54517   0.26748   0.28587 
H          H       0.65204   0.43517   0.20425 
H          H       0.65236   0.54182   0.24694 
H          H       0.53377   0.48713   0.33271 
H          H       0.32537   0.18361   0.07207 
H          H       0.38331   0.21919   0.01013 
H          H       0.42929   0.29740   0.48103 
H          H       0.36219   0.35518   0.11056 
H          H       0.31150   0.28308   0.15825 
H          H       0.59269   0.28511   0.10213 
H          H       0.64692   0.21385   0.14840 
H          H       0.69299   0.31974   0.48422 
H          H       0.63652   0.38762   0.45202 
H          H       0.66483   0.15460   0.39286 
H          H       0.22175   0.02487   0.37597 
H          H       0.28237   0.08165   0.32842 
H          H       0.25048   0.19334   0.17819 
H          H       0.19280   0.13473   0.23322 
H          H       0.16994   0.86734   0.41655 
H          H       0.22610   0.80459   0.34237 
H          H       0.30706   0.89967   0.10906 
H          H       0.25043   0.96139   0.18705 
H          H       0.85735   0.87250   0.23841 
H          H       0.85693   0.10362   0.15879 
H          H       0.89435   0.13553   0.36953 
H          H       0.91932   0.14202   0.19776 
H          H       0.95586   0.19201   0.39045 
H          H       0.95955   0.12520   0.48994 
H          H       0.06839   0.14840   0.19630 
H          H       0.09479   0.13292   0.36280 
H          H       0.03158   0.18863   0.40312 
H          H       0.03069   0.11783   0.48443 
H          H       0.53354   0.70845   0.30610 
H          H       0.45640   0.70575   0.32611 
H          H       0.34800   0.54007   0.23572 
H          H       0.34881   0.43128   0.24493 
H          H       0.46768   0.48431   0.33701 
C          C       0.69044   0.79617   0.54397 
N          N       0.69046   0.76161   0.93516 
C          C       0.65908   0.72251   0.89755 
C          C       0.62289   0.71809   0.97507 
C          C       0.59562   0.67510   0.94307 
C          C       0.60155   0.63839   0.82496 
C          C       0.63664   0.64605   0.74243 
C          C       0.66545   0.68626   0.78078 
C          C       0.39170   0.63248   0.81102 
C          C       0.38769   0.68332   0.72999 
C          C       0.35735   0.72417   0.76129 
C          C       0.32930   0.71381   0.86990 
C          C       0.33145   0.66210   0.94489 
C          C       0.36280   0.62248   0.91840 
N          N       0.29794   0.75479   0.90420 
C          C       0.30453   0.80846   0.93042 
C          C       0.75476   0.90734   0.71830 
C          C       0.72263   0.87158   0.68795 
C          C       0.72507   0.83312   0.57340 
C          C       0.76076   0.83000   0.99207 
C          C       0.79230   0.86752   0.51970 
C          C       0.79814   0.09697   0.95388 
C          C       0.76800   0.13221   0.89361 
C          C       0.72797   0.12892   0.94137 
C          C       0.71880   0.09116   0.55195 
C          C       0.74935   0.05810   0.61629 
C          C       0.20330   0.07357   0.56154 
C          C       0.16848   0.03717   0.60264 
C          C       0.20561   0.91945   0.55736 
C          C       0.17019   0.95469   0.60684 
C          C       0.13281   0.06566   0.64810 
C          C       0.13686   0.92510   0.66171 
C          C       0.07369   0.86810   0.81907 
O          O       0.06986   0.92747   0.78283 
O          O       0.99958   0.86252   0.84069 
C          C       0.03825   0.85170   0.91334 
O          O       0.92595   0.92575   0.83112 
C          C       0.92722   0.86543   0.85818 
C          C       0.96695   0.84937   0.93149 
C          C       0.89068   0.03119   0.74549 
C          C       0.89123   0.95035   0.76592 
C          C       0.47067   0.36021   0.76822 
C          C       0.48487   0.30375   0.77189 
C          C       0.52590   0.30513   0.77396 
C          C       0.53641   0.36213   0.76057 
N          N       0.50243   0.39587   0.75651 
C          C       0.42892   0.37719   0.77255 
C          C       0.57682   0.38193   0.75829 
C          C       0.58626   0.44099   0.74708 
C          C       0.62494   0.46065   0.72493 
C          C       0.62464   0.51864   0.74353 
C          C       0.58496   0.53812   0.76445 
N          N       0.55941   0.48913   0.76924 
C          C       0.30699   0.17565   0.97940 
N          N       0.31202   0.20423   0.86206 
C          C       0.34283   0.24594   0.83854 
C          C       0.37731   0.24960   0.92538 
C          C       0.40444   0.29400   0.90633 
C          C       0.39970   0.33379   0.79392 
C          C       0.36609   0.32789   0.70316 
C          C       0.33763   0.28545   0.72742 
C          C       0.60950   0.34178   0.77533 
C          C       0.61362   0.29248   0.68881 
C          C       0.64486   0.25223   0.71323 
C          C       0.67356   0.26195   0.82012 
C          C       0.67109   0.31215   0.90080 
C          C       0.63892   0.35089   0.88148 
N          N       0.70433   0.22019   0.85398 
C          C       0.69606   0.16768   0.88632 
C          C       0.22844   0.06057   0.94451 
C          C       0.26254   0.09351   0.91601 
C          C       0.27087   0.14133   0.50089 
C          C       0.24479   0.15615   0.61263 
C          C       0.21145   0.12281   0.64262 
C          C       0.19963   0.87475   0.95963 
C          C       0.23173   0.83885   0.91734 
C          C       0.27075   0.84737   0.97067 
C          C       0.27717   0.89260   0.56610 
C          C       0.24477   0.92779   0.61091 
C          C       0.78876   0.90819   0.62939 
C          C       0.82312   0.94531   0.66415 
C          C       0.78928   0.05892   0.56541 
C          C       0.82301   0.02676   0.63807 
C          C       0.85755   0.91850   0.72373 
C          C       0.85721   0.05788   0.67778 
C          C       0.92134   0.12252   0.80571 
O          O       0.92436   0.06140   0.79548 
O          O       0.99534   0.12897   0.80176 
C          C       0.95866   0.14449   0.88120 
O          O       0.06608   0.06346   0.76787 
C          C       0.06763   0.12353   0.79737 
C          C       0.03021   0.14174   0.88150 
C          C       0.10262   0.95467   0.71649 
C          C       0.10059   0.03586   0.70903 
C          C       0.53044   0.61319   0.79109 
C          C       0.51640   0.66954   0.80214 
C          C       0.47540   0.66827   0.80776 
C          C       0.46458   0.61163   0.78856 
N          N       0.49848   0.57791   0.77765 
C          C       0.57225   0.59611   0.79153 
C          C       0.42401   0.59213   0.78775 
C          C       0.41420   0.53336   0.76979 
C          C       0.37533   0.51418   0.74767 
C          C       0.37611   0.45555   0.74846 
C          C       0.41601   0.43590   0.76090 
N          N       0.44136   0.48476   0.77672 
H          H       0.66521   0.79857   0.61686 
H          H       0.61585   0.74551   0.56473 
H          H       0.56985   0.67014   0.51304 
H          H       0.64143   0.62253   0.64432 
H          H       0.69263   0.68985   0.71731 
H          H       0.40806   0.69142   0.64209 
H          H       0.35524   0.76330   0.69929 
H          H       0.30977   0.65356   0.52840 
H          H       0.36498   0.58437   0.98425 
H          H       0.33522   0.82384   0.93456 
H          H       0.75338   0.93347   0.81360 
H          H       0.69620   0.87310   0.75621 
H          H       0.76409   0.79930   0.90599 
H          H       0.81950   0.86476   0.95596 
H          H       0.82882   0.10089   0.91694 
H          H       0.77593   0.16183   0.80963 
H          H       0.68841   0.09003   0.59493 
H          H       0.74184   0.03597   0.71247 
H          H       0.13068   0.11178   0.63778 
H          H       0.13844   0.87873   0.66503 
H          H       0.10183   0.85998   0.88096 
H          H       0.07405   0.84127   0.72111 
H          H       0.04162   0.80537   0.94088 
H          H       0.03974   0.87782   0.51262 
H          H       0.92518   0.84121   0.75629 
H          H       0.90193   0.85376   0.93010 
H          H       0.96702   0.80259   0.95547 
H          H       0.96842   0.87386   0.53345 
H          H       0.46790   0.26468   0.77294 
H          H       0.54517   0.26748   0.78587 
H          H       0.65204   0.43517   0.70425 
H          H       0.65236   0.54182   0.74694 
H          H       0.53377   0.48713   0.83271 
H          H       0.32537   0.18361   0.57207 
H          H       0.38331   0.21919   0.51014 
H          H       0.42929   0.29740   0.98103 
H          H       0.36219   0.35518   0.61056 
H          H       0.31150   0.28308   0.65824 
H          H       0.59269   0.28511   0.60213 
H          H       0.64692   0.21385   0.64840 
H          H       0.69299   0.31974   0.98422 
H          H       0.63652   0.38762   0.95201 
H          H       0.66483   0.15460   0.89286 
H          H       0.22175   0.02487   0.87597 
H          H       0.28237   0.08165   0.82842 
H          H       0.25048   0.19334   0.67819 
H          H       0.19280   0.13473   0.73322 
H          H       0.16994   0.86734   0.91655 
H          H       0.22610   0.80459   0.84237 
H          H       0.30706   0.89967   0.60907 
H          H       0.25043   0.96139   0.68705 
H          H       0.85735   0.87250   0.73840 
H          H       0.85693   0.10362   0.65880 
H          H       0.89435   0.13553   0.86953 
H          H       0.91932   0.14202   0.69776 
H          H       0.95586   0.19201   0.89045 
H          H       0.95955   0.12520   0.98994 
H          H       0.06839   0.14840   0.69630 
H          H       0.09479   0.13292   0.86281 
H          H       0.03158   0.18863   0.90312 
H          H       0.03069   0.11783   0.98443 
H          H       0.53354   0.70845   0.80610 
H          H       0.45640   0.70575   0.82611 
H          H       0.34800   0.54007   0.73572 
H          H       0.34881   0.43128   0.74493 
H          H       0.46768   0.48431   0.83701 
