data_crystal
 
_cell_length_a    31.10370
_cell_length_b    18.92070
_cell_length_c    8.41804
_cell_angle_alpha 90.00000
_cell_angle_beta  90.00000
_cell_angle_gamma 90.00000
 
_symmetry_space_group_name_Hall 'P 1'
_symmetry_space_group_name_H-M  'P 1'
 
loop_
_symmetry_equiv_pos_as_xyz
 'x,y,z' 
 
loop_
_atom_site_label
_atom_site_type_symbol
_atom_site_fract_x
_atom_site_fract_y
_atom_site_fract_z
C          C       0.69838   0.80963   0.23296 
N          N       0.66201   0.81821   0.27231 
C          C       0.63441   0.76819   0.27774 
C          C       0.60512   0.76593   0.37828 
C          C       0.57779   0.71718   0.38088 
C          C       0.57925   0.67073   0.28087 
C          C       0.60753   0.67578   0.17732 
C          C       0.63511   0.72280   0.17678 
C          C       0.38866   0.63543   0.05419 
C          C       0.38284   0.68073   0.45425 
C          C       0.34980   0.71937   0.45981 
C          C       0.32142   0.71209   0.06363 
C          C       0.32589   0.66389   0.15704 
C          C       0.35945   0.62692   0.15415 
N          N       0.28815   0.75235   0.08070 
C          C       0.28059   0.80270   0.01402 
C          C       0.75787   0.95587   0.24814 
C          C       0.72586   0.91590   0.26639 
C          C       0.72532   0.85961   0.19842 
C          C       0.75401   0.84657   0.10054 
C          C       0.78754   0.88296   0.09124 
C          C       0.80547   0.12673   0.24001 
C          C       0.77472   0.16824   0.21840 
C          C       0.74783   0.15977   0.11069 
C          C       0.75309   0.10985   0.02197 
C          C       0.78549   0.07096   0.03940 
C          C       0.20242   0.06191   0.16623 
C          C       0.16679   0.02870   0.22069 
C          C       0.18512   0.92000   0.13921 
C          C       0.15728   0.96540   0.19923 
C          C       0.14150   0.06380   0.30319 
C          C       0.12170   0.94220   0.25418 
C          C       0.06003   0.89164   0.42428 
O          O       0.06187   0.95628   0.39710 
O          O       0.98939   0.89517   0.45577 
C          C       0.02535   0.87830   0.01934 
O          O       0.93431   0.90504   0.24920 
C          C       0.92823   0.86138   0.35644 
C          C       0.96795   0.84219   0.41582 
C          C       0.91081   0.00733   0.20686 
C          C       0.90252   0.94515   0.22460 
C          C       0.48445   0.36878   0.09123 
C          C       0.50293   0.31202   0.09183 
C          C       0.54203   0.32226   0.10845 
C          C       0.54739   0.38500   0.11923 
N          N       0.51155   0.41410   0.11209 
C          C       0.44341   0.37688   0.07824 
C          C       0.58378   0.41190   0.15799 
C          C       0.58070   0.46601   0.23511 
C          C       0.60454   0.48459   0.34168 
C          C       0.59704   0.54463   0.36500 
C          C       0.56594   0.56205   0.28137 
N          N       0.55299   0.51371   0.20700 
C          C       0.29595   0.19134   0.11674 
N          N       0.33344   0.17983   0.10246 
C          C       0.36214   0.22839   0.09906 
C          C       0.39149   0.22825   0.49895 
C          C       0.41828   0.27698   0.48974 
C          C       0.41727   0.32570   0.08507 
C          C       0.38889   0.32331   0.18957 
C          C       0.36085   0.27656   0.19420 
C          C       0.62120   0.38167   0.12886 
C          C       0.62441   0.33896   0.02037 
C          C       0.65693   0.29942   0.00904 
C          C       0.68894   0.30592   0.09812 
C          C       0.69033   0.35692   0.18319 
C          C       0.65767   0.39585   0.19379 
N          N       0.71982   0.26100   0.10816 
C          C       0.71467   0.20214   0.09012 
C          C       0.24195   0.04113   0.18596 
C          C       0.27349   0.08251   0.16398 
C          C       0.26595   0.14304   0.12139 
C          C       0.22765   0.16078   0.09000 
C          C       0.19626   0.12021   0.10880 
C          C       0.19254   0.86442   0.20852 
C          C       0.22283   0.82576   0.16625 
C          C       0.24642   0.84113   0.05314 
C          C       0.23685   0.89401   0.47781 
C          C       0.20421   0.92977   0.01507 
C          C       0.79150   0.93591   0.17347 
C          C       0.83172   0.96456   0.18874 
C          C       0.80949   0.07530   0.15481 
C          C       0.84001   0.02856   0.18163 
C          C       0.86334   0.92414   0.21438 
C          C       0.87927   0.04921   0.19370 
C          C       0.96289   0.07771   0.13437 
O          O       0.95074   0.02562   0.21363 
O          O       0.01742   0.11043   0.27174 
C          C       0.97902   0.12740   0.22931 
O          O       0.07993   0.07709   0.43272 
C          C       0.07522   0.14046   0.39428 
C          C       0.03182   0.15396   0.36621 
C          C       0.09621   0.97905   0.33324 
C          C       0.10552   0.04092   0.35302 
C          C       0.51442   0.63327   0.21366 
C          C       0.49756   0.69106   0.20667 
C          C       0.46280   0.68499   0.13992 
C          C       0.45792   0.62307   0.11200 
N          N       0.48995   0.59050   0.15640 
C          C       0.55147   0.62193   0.27183 
C          C       0.42309   0.59847   0.05724 
C          C       0.41896   0.53550   0.03638 
C          C       0.38436   0.50765   0.49487 
C          C       0.38922   0.44642   0.01158 
C          C       0.42745   0.43581   0.05789 
N          N       0.44716   0.48954   0.07156 
Co         Co      0.50048   0.50221   0.13575 
H          H       0.71005   0.76387   0.21368 
H          H       0.60398   0.80088   0.45670 
H          H       0.55751   0.71457   0.46471 
H          H       0.60608   0.64675   0.08971 
H          H       0.65508   0.72636   0.09119 
H          H       0.40253   0.68444   0.36857 
H          H       0.34632   0.75374   0.38121 
H          H       0.30441   0.65736   0.23759 
H          H       0.36368   0.59320   0.23387 
H          H       0.30014   0.81872   0.43415 
H          H       0.75557   0.00034   0.29858 
H          H       0.70284   0.92752   0.33846 
H          H       0.75050   0.80572   0.03785 
H          H       0.81111   0.86965   0.02277 
H          H       0.82571   0.13402   0.32437 
H          H       0.77203   0.20796   0.28542 
H          H       0.73366   0.10351   0.43513 
H          H       0.79229   0.03710   0.46327 
H          H       0.15004   0.11009   0.33081 
H          H       0.11408   0.89455   0.23555 
H          H       0.08766   0.87599   0.47561 
H          H       0.05594   0.86526   0.32782 
H          H       0.02691   0.82924   0.05253 
H          H       0.02885   0.90643   0.11328 
H          H       0.91300   0.82020   0.31502 
H          H       0.91032   0.88154   0.44129 
H          H       0.98460   0.81630   0.33603 
H          H       0.96193   0.81208   0.00523 
H          H       0.49100   0.26667   0.08261 
H          H       0.56290   0.28546   0.12412 
H          H       0.62395   0.45812   0.40471 
H          H       0.61235   0.57013   0.44211 
H          H       0.28488   0.23827   0.11904 
H          H       0.39302   0.19120   0.42479 
H          H       0.43826   0.27764   0.40414 
H          H       0.38963   0.35583   0.27201 
H          H       0.33908   0.27622   0.27520 
H          H       0.60228   0.33633   0.44188 
H          H       0.65702   0.26387   0.43123 
H          H       0.71610   0.36514   0.24567 
H          H       0.66294   0.43583   0.25316 
H          H       0.68615   0.18382   0.05916 
H          H       0.24956   0.99503   0.22415 
H          H       0.30330   0.06804   0.18712 
H          H       0.22248   0.20709   0.05284 
H          H       0.16658   0.13597   0.08735 
H          H       0.17597   0.85195   0.29935 
H          H       0.22775   0.78340   0.22299 
H          H       0.25355   0.90618   0.38729 
H          H       0.19480   0.96664   0.44966 
H          H       0.85774   0.87548   0.22592 
H          H       0.88520   0.09824   0.19223 
H          H       0.93934   0.09695   0.06817 
H          H       0.98660   0.06262   0.06314 
H          H       0.97989   0.17164   0.17217 
H          H       0.95857   0.13239   0.31815 
H          H       0.09148   0.15322   0.29990 
H          H       0.08570   0.16993   0.47992 
H          H       0.02977   0.20152   0.32488 
H          H       0.01516   0.15171   0.46375 
H          H       0.50749   0.73364   0.25010 
H          H       0.44335   0.72316   0.11883 
H          H       0.35808   0.52867   0.45510 
H          H       0.36634   0.41403   0.48770 
C          C       0.69838   0.80963   0.73296 
N          N       0.66201   0.81821   0.77231 
C          C       0.63441   0.76819   0.77774 
C          C       0.60512   0.76593   0.87829 
C          C       0.57779   0.71718   0.88088 
C          C       0.57925   0.67073   0.78087 
C          C       0.60753   0.67578   0.67732 
C          C       0.63511   0.72280   0.67678 
C          C       0.38866   0.63543   0.55419 
C          C       0.38284   0.68073   0.95425 
C          C       0.34980   0.71937   0.95981 
C          C       0.32142   0.71209   0.56363 
C          C       0.32589   0.66389   0.65704 
C          C       0.35945   0.62692   0.65416 
N          N       0.28815   0.75235   0.58070 
C          C       0.28059   0.80270   0.51403 
C          C       0.75787   0.95587   0.74814 
C          C       0.72586   0.91590   0.76639 
C          C       0.72532   0.85961   0.69842 
C          C       0.75401   0.84657   0.60054 
C          C       0.78754   0.88296   0.59124 
C          C       0.80547   0.12673   0.74002 
C          C       0.77472   0.16824   0.71840 
C          C       0.74783   0.15977   0.61068 
C          C       0.75309   0.10985   0.52197 
C          C       0.78549   0.07096   0.53940 
C          C       0.20242   0.06191   0.66623 
C          C       0.16679   0.02870   0.72069 
C          C       0.18512   0.92000   0.63921 
C          C       0.15728   0.96540   0.69922 
C          C       0.14150   0.06380   0.80319 
C          C       0.12170   0.94220   0.75418 
C          C       0.06003   0.89164   0.92428 
O          O       0.06187   0.95628   0.89710 
O          O       0.98939   0.89517   0.95577 
C          C       0.02535   0.87830   0.51934 
O          O       0.93431   0.90504   0.74920 
C          C       0.92823   0.86138   0.85644 
C          C       0.96795   0.84219   0.91582 
C          C       0.91081   0.00733   0.70686 
C          C       0.90252   0.94515   0.72460 
C          C       0.48445   0.36878   0.59123 
C          C       0.50293   0.31202   0.59183 
C          C       0.54203   0.32226   0.60845 
C          C       0.54739   0.38500   0.61923 
N          N       0.51155   0.41410   0.61208 
C          C       0.44341   0.37688   0.57825 
C          C       0.58378   0.41190   0.65799 
C          C       0.58070   0.46601   0.73511 
C          C       0.60454   0.48459   0.84168 
C          C       0.59704   0.54463   0.86500 
C          C       0.56594   0.56205   0.78138 
N          N       0.55299   0.51371   0.70700 
C          C       0.29595   0.19134   0.61674 
N          N       0.33344   0.17983   0.60245 
C          C       0.36214   0.22839   0.59906 
C          C       0.39149   0.22825   0.99895 
C          C       0.41828   0.27698   0.98973 
C          C       0.41727   0.32570   0.58507 
C          C       0.38889   0.32331   0.68957 
C          C       0.36085   0.27656   0.69420 
C          C       0.62120   0.38167   0.62886 
C          C       0.62441   0.33896   0.52037 
C          C       0.65693   0.29942   0.50904 
C          C       0.68894   0.30592   0.59812 
C          C       0.69033   0.35692   0.68319 
C          C       0.65767   0.39585   0.69378 
N          N       0.71982   0.26100   0.60816 
C          C       0.71467   0.20214   0.59012 
C          C       0.24195   0.04113   0.68595 
C          C       0.27349   0.08251   0.66398 
C          C       0.26595   0.14304   0.62138 
C          C       0.22765   0.16078   0.59000 
C          C       0.19626   0.12021   0.60881 
C          C       0.19254   0.86442   0.70852 
C          C       0.22283   0.82576   0.66625 
C          C       0.24642   0.84113   0.55313 
C          C       0.23685   0.89401   0.97780 
C          C       0.20421   0.92977   0.51506 
C          C       0.79150   0.93591   0.67347 
C          C       0.83172   0.96456   0.68874 
C          C       0.80949   0.07530   0.65481 
C          C       0.84001   0.02856   0.68163 
C          C       0.86334   0.92414   0.71437 
C          C       0.87927   0.04921   0.69371 
C          C       0.96289   0.07771   0.63438 
O          O       0.95074   0.02562   0.71364 
O          O       0.01742   0.11043   0.77174 
C          C       0.97902   0.12740   0.72931 
O          O       0.07993   0.07709   0.93272 
C          C       0.07522   0.14046   0.89428 
C          C       0.03182   0.15396   0.86621 
C          C       0.09621   0.97905   0.83324 
C          C       0.10552   0.04092   0.85302 
C          C       0.51442   0.63327   0.71366 
C          C       0.49756   0.69106   0.70668 
C          C       0.46280   0.68499   0.63992 
C          C       0.45792   0.62307   0.61201 
N          N       0.48995   0.59050   0.65640 
C          C       0.55147   0.62193   0.77183 
C          C       0.42309   0.59847   0.55724 
C          C       0.41896   0.53550   0.53638 
C          C       0.38436   0.50765   0.99487 
C          C       0.38922   0.44642   0.51159 
C          C       0.42745   0.43581   0.55789 
N          N       0.44716   0.48954   0.57156 
Co         Co      0.50048   0.50221   0.63575 
H          H       0.71005   0.76387   0.71367 
H          H       0.60398   0.80088   0.95670 
H          H       0.55751   0.71457   0.96471 
H          H       0.60608   0.64675   0.58971 
H          H       0.65508   0.72636   0.59119 
H          H       0.40253   0.68444   0.86857 
H          H       0.34632   0.75374   0.88121 
H          H       0.30441   0.65736   0.73759 
H          H       0.36368   0.59320   0.73387 
H          H       0.30014   0.81872   0.93415 
H          H       0.75557   0.00034   0.79858 
H          H       0.70284   0.92752   0.83846 
H          H       0.75050   0.80572   0.53786 
H          H       0.81111   0.86965   0.52277 
H          H       0.82571   0.13402   0.82437 
H          H       0.77203   0.20796   0.78542 
H          H       0.73366   0.10351   0.93513 
H          H       0.79229   0.03710   0.96327 
H          H       0.15004   0.11009   0.83081 
H          H       0.11408   0.89455   0.73555 
H          H       0.08766   0.87599   0.97562 
H          H       0.05594   0.86526   0.82782 
H          H       0.02691   0.82924   0.55253 
H          H       0.02885   0.90643   0.61328 
H          H       0.91300   0.82020   0.81502 
H          H       0.91032   0.88154   0.94129 
H          H       0.98460   0.81630   0.83603 
H          H       0.96193   0.81208   0.50523 
H          H       0.49100   0.26667   0.58261 
H          H       0.56290   0.28546   0.62413 
H          H       0.62395   0.45812   0.90472 
H          H       0.61235   0.57013   0.94211 
H          H       0.28488   0.23827   0.61904 
H          H       0.39302   0.19120   0.92479 
H          H       0.43826   0.27764   0.90413 
H          H       0.38963   0.35583   0.77201 
H          H       0.33908   0.27622   0.77521 
H          H       0.60228   0.33633   0.94188 
H          H       0.65702   0.26387   0.93124 
H          H       0.71610   0.36514   0.74567 
H          H       0.66294   0.43583   0.75315 
H          H       0.68615   0.18382   0.55916 
H          H       0.24956   0.99503   0.72415 
H          H       0.30330   0.06804   0.68712 
H          H       0.22248   0.20709   0.55284 
H          H       0.16658   0.13597   0.58735 
H          H       0.17597   0.85195   0.79934 
H          H       0.22775   0.78340   0.72299 
H          H       0.25355   0.90618   0.88729 
H          H       0.19480   0.96664   0.94966 
H          H       0.85774   0.87548   0.72592 
H          H       0.88520   0.09824   0.69223 
H          H       0.93934   0.09695   0.56817 
H          H       0.98660   0.06262   0.56314 
H          H       0.97989   0.17164   0.67216 
H          H       0.95857   0.13239   0.81815 
H          H       0.09148   0.15322   0.79990 
H          H       0.08570   0.16993   0.97992 
H          H       0.02977   0.20152   0.82488 
H          H       0.01516   0.15171   0.96375 
H          H       0.50749   0.73364   0.75010 
H          H       0.44335   0.72316   0.61884 
H          H       0.35808   0.52867   0.95510 
H          H       0.36634   0.41403   0.98771 
