data_crystal
 
_cell_length_a    40.52120
_cell_length_b    40.52120
_cell_length_c    66.52460
_cell_angle_alpha 90.00000
_cell_angle_beta  90.00000
_cell_angle_gamma 90.00000
 
_space_group_name_Hall 'P 1'
_space_group_name_H-M_alt  'P 1'
 
loop_
_symmetry_equiv_pos_as_xyz
 'x,y,z' 
 
loop_
_atom_site_label
_atom_site_type_symbol
_atom_site_fract_x
_atom_site_fract_y
_atom_site_fract_z
C          C       0.49056   0.06085   0.72247 
C          C       0.00944   0.43915   0.22247 
C          C       0.93915   0.99056   0.97247 
C          C       0.56085   0.50944   0.47247 
C          C       0.50944   0.43915   0.52753 
C          C       0.99056   0.06085   0.02753 
C          C       0.06085   0.50944   0.27753 
C          C       0.43915   0.99056   0.77753 
C          C       0.99056   0.56085   0.22247 
C          C       0.50944   0.93915   0.72247 
C          C       0.43915   0.49056   0.47247 
C          C       0.06085   0.00944   0.97247 
C          C       0.00944   0.93915   0.02753 
C          C       0.49056   0.56085   0.52753 
C          C       0.56085   0.00944   0.77753 
C          C       0.93915   0.49056   0.27753 
C          C       0.51437   0.06659   0.70749 
C          C       0.98563   0.43341   0.20749 
C          C       0.93341   0.01437   0.95749 
C          C       0.56659   0.48563   0.45749 
C          C       0.48563   0.43341   0.54251 
C          C       0.01437   0.06659   0.04251 
C          C       0.06659   0.48563   0.29251 
C          C       0.43341   0.01437   0.79251 
C          C       0.01437   0.56659   0.20749 
C          C       0.48563   0.93341   0.70749 
C          C       0.43341   0.51437   0.45749 
C          C       0.06659   0.98563   0.95749 
C          C       0.98563   0.93341   0.04251 
C          C       0.51437   0.56659   0.54251 
C          C       0.56659   0.98563   0.79251 
C          C       0.93341   0.51437   0.29251 
C          C       0.51228   0.09427   0.69505 
C          C       0.98772   0.40573   0.19505 
C          C       0.90573   0.01228   0.94505 
C          C       0.59427   0.48772   0.44505 
C          C       0.48772   0.40573   0.55495 
C          C       0.01228   0.09427   0.05495 
C          C       0.09427   0.48772   0.30495 
C          C       0.40573   0.01228   0.80495 
C          C       0.01228   0.59427   0.19505 
C          C       0.48772   0.90573   0.69505 
C          C       0.40573   0.51228   0.44505 
C          C       0.09427   0.98772   0.94505 
C          C       0.98772   0.90573   0.05495 
C          C       0.51228   0.59427   0.55495 
C          C       0.59427   0.98772   0.80495 
C          C       0.90573   0.51228   0.30495 
C          C       0.48645   0.11690   0.69747 
C          C       0.01355   0.38310   0.19747 
C          C       0.88310   0.98645   0.94747 
C          C       0.61690   0.51355   0.44747 
C          C       0.51355   0.38310   0.55253 
C          C       0.98645   0.11690   0.05253 
C          C       0.11690   0.51355   0.30253 
C          C       0.38310   0.98645   0.80253 
C          C       0.98645   0.61690   0.19747 
C          C       0.51355   0.88310   0.69747 
C          C       0.38310   0.48645   0.44747 
C          C       0.11690   0.01355   0.94747 
C          C       0.01355   0.88310   0.05253 
C          C       0.48645   0.61690   0.55253 
C          C       0.61690   0.01355   0.80253 
C          C       0.88310   0.48645   0.30253 
C          C       0.46294   0.11171   0.71249 
C          C       0.03706   0.38829   0.21249 
C          C       0.88829   0.96294   0.96249 
C          C       0.61171   0.53706   0.46249 
C          C       0.53706   0.38829   0.53751 
C          C       0.96294   0.11171   0.03751 
C          C       0.11171   0.53706   0.28751 
C          C       0.38829   0.96294   0.78751 
C          C       0.96294   0.61171   0.21249 
C          C       0.53706   0.88829   0.71249 
C          C       0.38829   0.46294   0.46249 
C          C       0.11171   0.03706   0.96249 
C          C       0.03706   0.88829   0.03751 
C          C       0.46294   0.61171   0.53751 
C          C       0.61171   0.03706   0.78751 
C          C       0.88829   0.46294   0.28751 
C          C       0.46504   0.08402   0.72494 
C          C       0.03496   0.41598   0.22494 
C          C       0.91598   0.96504   0.97494 
C          C       0.58402   0.53496   0.47494 
C          C       0.53496   0.41598   0.52506 
C          C       0.96504   0.08402   0.02506 
C          C       0.08402   0.53496   0.27506 
C          C       0.41598   0.96504   0.77506 
C          C       0.96504   0.58402   0.22494 
C          C       0.53496   0.91598   0.72494 
C          C       0.41598   0.46504   0.47494 
C          C       0.08402   0.03496   0.97494 
C          C       0.03496   0.91598   0.02506 
C          C       0.46504   0.58402   0.52506 
C          C       0.58402   0.03496   0.77506 
C          C       0.91598   0.46504   0.27506 
C          C       0.48364   0.14615   0.68461 
C          C       0.01636   0.35385   0.18461 
C          C       0.85385   0.98364   0.93461 
C          C       0.64615   0.51636   0.43461 
C          C       0.51636   0.35385   0.56539 
C          C       0.98364   0.14615   0.06539 
C          C       0.14615   0.51636   0.31539 
C          C       0.35385   0.98364   0.81539 
C          C       0.98364   0.64615   0.18461 
C          C       0.51636   0.85385   0.68461 
C          C       0.35385   0.48364   0.43461 
C          C       0.14615   0.01636   0.93461 
C          C       0.01636   0.85385   0.06539 
C          C       0.48364   0.64615   0.56539 
C          C       0.64615   0.01636   0.81539 
C          C       0.85385   0.48364   0.31539 
N          N       0.50487   0.15210   0.67048 
N          N       0.99513   0.34790   0.17048 
N          N       0.84790   0.00487   0.92048 
N          N       0.65210   0.49513   0.42048 
N          N       0.49513   0.34790   0.57952 
N          N       0.00487   0.15210   0.07952 
N          N       0.15210   0.49513   0.32952 
N          N       0.34790   0.00487   0.82952 
N          N       0.00487   0.65210   0.17048 
N          N       0.49513   0.84790   0.67048 
N          N       0.34790   0.50487   0.42048 
N          N       0.15210   0.99513   0.92048 
N          N       0.99513   0.84790   0.07952 
N          N       0.50487   0.65210   0.57952 
N          N       0.65210   0.99513   0.82952 
N          N       0.84790   0.50487   0.32952 
C          C       0.47761   0.20377   0.65951 
C          C       0.02239   0.29623   0.15951 
C          C       0.79623   0.97761   0.90951 
C          C       0.70377   0.52239   0.40951 
C          C       0.52239   0.29623   0.59049 
C          C       0.97761   0.20377   0.09049 
C          C       0.20377   0.52239   0.34049 
C          C       0.29623   0.97761   0.84049 
C          C       0.97761   0.70377   0.15951 
C          C       0.52239   0.79623   0.65951 
C          C       0.29623   0.47761   0.40951 
C          C       0.20377   0.02239   0.90951 
C          C       0.02239   0.79623   0.09049 
C          C       0.47761   0.70377   0.59049 
C          C       0.70377   0.02239   0.84049 
C          C       0.79623   0.47761   0.34049 
C          C       0.50298   0.18036   0.65761 
C          C       0.99702   0.31964   0.15761 
C          C       0.81964   0.00298   0.90761 
C          C       0.68036   0.49702   0.40761 
C          C       0.49702   0.31964   0.59239 
C          C       0.00298   0.18036   0.09239 
C          C       0.18036   0.49702   0.34239 
C          C       0.31964   0.00298   0.84239 
C          C       0.00298   0.68036   0.15761 
C          C       0.49702   0.81964   0.65761 
C          C       0.31964   0.50298   0.40761 
C          C       0.18036   0.99702   0.90761 
C          C       0.99702   0.81964   0.09239 
C          C       0.50298   0.68036   0.59239 
C          C       0.68036   0.99702   0.84239 
C          C       0.81964   0.50298   0.34239 
C          C       0.52705   0.18468   0.64279 
C          C       0.97295   0.31532   0.14279 
C          C       0.81532   0.02705   0.89279 
C          C       0.68468   0.47295   0.39279 
C          C       0.47295   0.31532   0.60721 
C          C       0.02705   0.18468   0.10721 
C          C       0.18468   0.47295   0.35721 
C          C       0.31532   0.02705   0.85721 
C          C       0.02705   0.68468   0.14279 
C          C       0.47295   0.81532   0.64279 
C          C       0.31532   0.52705   0.39279 
C          C       0.18468   0.97295   0.89279 
C          C       0.97295   0.81532   0.10721 
C          C       0.52705   0.68468   0.60721 
C          C       0.68468   0.97295   0.85721 
C          C       0.81532   0.52705   0.35721 
C          C       0.52589   0.21200   0.62999 
C          C       0.97411   0.28800   0.12999 
C          C       0.78800   0.02589   0.87999 
C          C       0.71200   0.47411   0.37999 
C          C       0.47411   0.28800   0.62001 
C          C       0.02589   0.21200   0.12001 
C          C       0.21200   0.47411   0.37001 
C          C       0.28800   0.02589   0.87001 
C          C       0.02589   0.71200   0.12999 
C          C       0.47411   0.78800   0.62999 
C          C       0.28800   0.52589   0.37999 
C          C       0.21200   0.97411   0.87999 
C          C       0.97411   0.78800   0.12001 
C          C       0.52589   0.71200   0.62001 
C          C       0.71200   0.97411   0.87001 
C          C       0.78800   0.52589   0.37001 
C          C       0.50060   0.23551   0.63179 
C          C       0.99940   0.26449   0.13179 
C          C       0.76449   0.00060   0.88179 
C          C       0.73551   0.49940   0.38179 
C          C       0.49940   0.26449   0.61821 
C          C       0.00060   0.23551   0.11821 
C          C       0.23551   0.49940   0.36821 
C          C       0.26449   0.00060   0.86821 
C          C       0.00060   0.73551   0.13179 
C          C       0.49940   0.76449   0.63179 
C          C       0.26449   0.50060   0.38179 
C          C       0.23551   0.99940   0.88179 
C          C       0.99940   0.76449   0.11821 
C          C       0.50060   0.73551   0.61821 
C          C       0.73551   0.99940   0.86821 
C          C       0.76449   0.50060   0.36821 
C          C       0.47647   0.23107   0.64670 
C          C       0.02353   0.26893   0.14670 
C          C       0.76893   0.97647   0.89670 
C          C       0.73107   0.52353   0.39670 
C          C       0.52353   0.26893   0.60330 
C          C       0.97647   0.23107   0.10330 
C          C       0.23107   0.52353   0.35330 
C          C       0.26893   0.97647   0.85330 
C          C       0.97647   0.73107   0.14670 
C          C       0.52353   0.76893   0.64670 
C          C       0.26893   0.47647   0.39670 
C          C       0.23107   0.02353   0.89670 
C          C       0.02353   0.76893   0.10330 
C          C       0.47647   0.73107   0.60330 
C          C       0.73107   0.02353   0.85330 
C          C       0.76893   0.47647   0.35330 
C          C       0.49414   0.53109   0.51363 
C          C       0.00586   0.96891   0.01363 
C          C       0.46891   0.99414   0.76363 
C          C       0.03109   0.50586   0.26363 
C          C       0.50586   0.96891   0.73637 
C          C       0.99414   0.53109   0.23637 
C          C       0.53109   0.50586   0.48637 
C          C       0.96891   0.99414   0.98637 
C          C       0.99414   0.03109   0.01363 
C          C       0.50586   0.46891   0.51363 
C          C       0.96891   0.49414   0.26363 
C          C       0.53109   0.00586   0.76363 
C          C       0.00586   0.46891   0.23637 
C          C       0.49414   0.03109   0.73637 
C          C       0.03109   0.00586   0.98637 
C          C       0.46891   0.49414   0.48637 
C          C       0.46325   0.52448   0.50028 
C          C       0.03675   0.97552   0.00028 
C          C       0.47552   0.96325   0.75028 
C          C       0.02448   0.53675   0.25028 
C          C       0.53675   0.97552   0.74972 
C          C       0.96325   0.52448   0.24972 
C          C       0.52448   0.53675   0.49972 
C          C       0.97552   0.96325   0.99972 
C          C       0.96325   0.02448   0.00028 
C          C       0.53675   0.47552   0.50028 
C          C       0.97552   0.46325   0.25028 
C          C       0.52448   0.03675   0.75028 
C          C       0.03675   0.47552   0.24972 
C          C       0.46325   0.02448   0.74972 
C          C       0.02448   0.03675   0.99972 
C          C       0.47552   0.46325   0.49972 
H          H       0.53555   0.04834   0.70557 
H          H       0.96445   0.45166   0.20557 
H          H       0.95166   0.03555   0.95557 
H          H       0.54834   0.46445   0.45557 
H          H       0.46445   0.45166   0.54443 
H          H       0.03555   0.04834   0.04443 
H          H       0.04834   0.46445   0.29443 
H          H       0.45166   0.03555   0.79443 
H          H       0.03555   0.54834   0.20557 
H          H       0.46445   0.95166   0.70557 
H          H       0.45166   0.53555   0.45557 
H          H       0.04834   0.96445   0.95557 
H          H       0.96445   0.95166   0.04443 
H          H       0.53555   0.54834   0.54443 
H          H       0.54834   0.96445   0.79443 
H          H       0.95166   0.53555   0.29443 
H          H       0.53162   0.09850   0.68287 
H          H       0.96838   0.40150   0.18287 
H          H       0.90150   0.03162   0.93287 
H          H       0.59850   0.46838   0.43287 
H          H       0.46838   0.40150   0.56713 
H          H       0.03162   0.09850   0.06713 
H          H       0.09850   0.46838   0.31713 
H          H       0.40150   0.03162   0.81713 
H          H       0.03162   0.59850   0.18287 
H          H       0.46838   0.90150   0.68287 
H          H       0.40150   0.53162   0.43287 
H          H       0.09850   0.96838   0.93287 
H          H       0.96838   0.90150   0.06713 
H          H       0.53162   0.59850   0.56713 
H          H       0.59850   0.96838   0.81713 
H          H       0.90150   0.53162   0.31713 
H          H       0.44194   0.13010   0.71463 
H          H       0.05806   0.36990   0.21463 
H          H       0.86990   0.94194   0.96463 
H          H       0.63010   0.55806   0.46463 
H          H       0.55806   0.36990   0.53537 
H          H       0.94194   0.13010   0.03537 
H          H       0.13010   0.55806   0.28537 
H          H       0.36990   0.94194   0.78537 
H          H       0.94194   0.63010   0.21463 
H          H       0.55806   0.86990   0.71463 
H          H       0.36990   0.44194   0.46463 
H          H       0.13010   0.05806   0.96463 
H          H       0.05806   0.86990   0.03537 
H          H       0.44194   0.63010   0.53537 
H          H       0.63010   0.05806   0.78537 
H          H       0.86990   0.44194   0.28537 
H          H       0.44593   0.08000   0.73728 
H          H       0.05407   0.42000   0.23728 
H          H       0.92000   0.94593   0.98728 
H          H       0.58000   0.55407   0.48728 
H          H       0.55407   0.42000   0.51272 
H          H       0.94593   0.08000   0.01272 
H          H       0.08000   0.55407   0.26272 
H          H       0.42000   0.94593   0.76272 
H          H       0.94593   0.58000   0.23728 
H          H       0.55407   0.92000   0.73728 
H          H       0.42000   0.44593   0.48728 
H          H       0.08000   0.05407   0.98728 
H          H       0.05407   0.92000   0.01272 
H          H       0.44593   0.58000   0.51272 
H          H       0.58000   0.05407   0.76272 
H          H       0.92000   0.44593   0.26272 
H          H       0.46243   0.16424   0.68691 
H          H       0.03757   0.33576   0.18691 
H          H       0.83576   0.96243   0.93691 
H          H       0.66424   0.53757   0.43691 
H          H       0.53757   0.33576   0.56309 
H          H       0.96243   0.16424   0.06309 
H          H       0.16424   0.53757   0.31309 
H          H       0.33576   0.96243   0.81309 
H          H       0.96243   0.66424   0.18691 
H          H       0.53757   0.83576   0.68691 
H          H       0.33576   0.46243   0.43691 
H          H       0.16424   0.03757   0.93691 
H          H       0.03757   0.83576   0.06309 
H          H       0.46243   0.66424   0.56309 
H          H       0.66424   0.03757   0.81309 
H          H       0.83576   0.46243   0.31309 
H          H       0.45783   0.20053   0.67153 
H          H       0.04217   0.29947   0.17153 
H          H       0.79947   0.95783   0.92153 
H          H       0.70053   0.54217   0.42153 
H          H       0.54217   0.29947   0.57847 
H          H       0.95783   0.20053   0.07847 
H          H       0.20053   0.54217   0.32847 
H          H       0.29947   0.95783   0.82847 
H          H       0.95783   0.70053   0.17153 
H          H       0.54217   0.79947   0.67153 
H          H       0.29947   0.45783   0.42153 
H          H       0.20053   0.04217   0.92153 
H          H       0.04217   0.79947   0.07847 
H          H       0.45783   0.70053   0.57847 
H          H       0.70053   0.04217   0.82847 
H          H       0.79947   0.45783   0.32847 
H          H       0.54770   0.16576   0.64118 
H          H       0.95230   0.33424   0.14118 
H          H       0.83424   0.04770   0.89118 
H          H       0.66576   0.45230   0.39118 
H          H       0.45230   0.33424   0.60882 
H          H       0.04770   0.16576   0.10882 
H          H       0.16576   0.45230   0.35882 
H          H       0.33424   0.04770   0.85882 
H          H       0.04770   0.66576   0.14118 
H          H       0.45230   0.83424   0.64118 
H          H       0.33424   0.54770   0.39118 
H          H       0.16576   0.95230   0.89118 
H          H       0.95230   0.83424   0.10882 
H          H       0.54770   0.66576   0.60882 
H          H       0.66576   0.95230   0.85882 
H          H       0.83424   0.54770   0.35882 
H          H       0.54560   0.21537   0.61794 
H          H       0.95440   0.28463   0.11794 
H          H       0.78463   0.04560   0.86794 
H          H       0.71537   0.45440   0.36794 
H          H       0.45440   0.28463   0.63206 
H          H       0.04560   0.21537   0.13206 
H          H       0.21537   0.45440   0.38206 
H          H       0.28463   0.04560   0.88206 
H          H       0.04560   0.71537   0.11794 
H          H       0.45440   0.78463   0.61794 
H          H       0.28463   0.54560   0.36794 
H          H       0.21537   0.95440   0.86794 
H          H       0.95440   0.78463   0.13206 
H          H       0.54560   0.71537   0.63206 
H          H       0.71537   0.95440   0.88206 
H          H       0.78463   0.54560   0.38206 
H          H       0.45571   0.24985   0.64844 
H          H       0.04429   0.25015   0.14844 
H          H       0.75015   0.95571   0.89844 
H          H       0.74985   0.54429   0.39844 
H          H       0.54429   0.25015   0.60156 
H          H       0.95571   0.24985   0.10156 
H          H       0.24985   0.54429   0.35156 
H          H       0.25015   0.95571   0.85156 
H          H       0.95571   0.74985   0.14844 
H          H       0.54429   0.75015   0.64844 
H          H       0.25015   0.45571   0.39844 
H          H       0.24985   0.04429   0.89844 
H          H       0.04429   0.75015   0.10156 
H          H       0.45571   0.74985   0.60156 
H          H       0.74985   0.04429   0.85156 
H          H       0.75015   0.45571   0.35156 
H          H       0.45809   0.54716   0.49064 
H          H       0.04191   0.95284   0.99064 
H          H       0.45284   0.95809   0.74064 
H          H       0.04716   0.54191   0.24064 
H          H       0.54191   0.95284   0.75936 
H          H       0.95809   0.54716   0.25936 
H          H       0.54716   0.54191   0.50936 
H          H       0.95284   0.95809   0.00936 
H          H       0.95809   0.04716   0.99064 
H          H       0.54191   0.45284   0.49064 
H          H       0.95284   0.45809   0.24064 
H          H       0.54716   0.04191   0.74064 
H          H       0.04191   0.45284   0.25936 
H          H       0.45809   0.04716   0.75936 
H          H       0.04716   0.04191   0.00936 
H          H       0.45284   0.45809   0.50936 
H          H       0.44100   0.51940   0.51030 
H          H       0.05900   0.98060   0.01030 
H          H       0.48060   0.94100   0.76030 
H          H       0.01940   0.55900   0.26030 
H          H       0.55900   0.98060   0.73970 
H          H       0.94100   0.51940   0.23970 
H          H       0.51940   0.55900   0.48970 
H          H       0.98060   0.94100   0.98970 
H          H       0.94100   0.01940   0.01030 
H          H       0.55900   0.48060   0.51030 
H          H       0.98060   0.44100   0.26030 
H          H       0.51940   0.05900   0.76030 
H          H       0.05900   0.48060   0.23970 
H          H       0.44100   0.01940   0.73970 
H          H       0.01940   0.05900   0.98970 
H          H       0.48060   0.44100   0.48970 
H          H       0.49576   0.52251   0.46346 
H          H       0.00424   0.97749   0.96346 
H          H       0.47749   0.99576   0.71346 
H          H       0.02251   0.50424   0.21346 
H          H       0.50424   0.97749   0.78654 
H          H       0.99576   0.52251   0.28654 
H          H       0.52251   0.50424   0.53654 
H          H       0.97749   0.99576   0.03654 
H          H       0.99576   0.02251   0.96346 
H          H       0.50424   0.47749   0.46346 
H          H       0.97749   0.49576   0.21346 
H          H       0.52251   0.00424   0.71346 
H          H       0.00424   0.47749   0.28654 
H          H       0.49576   0.02251   0.78654 
H          H       0.02251   0.00424   0.03654 
H          H       0.47749   0.49576   0.53654 
C          C       0.50000   0.50000   0.47341 
C          C       0.00000   0.00000   0.97341 
C          C       0.50000   0.00000   0.72341 
C          C       0.00000   0.50000   0.22341 
C          C       0.50000   0.00000   0.77659 
C          C       0.00000   0.50000   0.27659 
C          C       0.50000   0.50000   0.52659 
C          C       0.00000   0.00000   0.02659 
