data_crystal

_cell_length_a    19.49000
_cell_length_b    24.43000
_cell_length_c    4.28000
_cell_angle_alpha 90.00000
_cell_angle_beta  79.60000
_cell_angle_gamma 90.00000

_space_group_name_Hall 'P 1'
_space_group_name_H-M_alt  'P 1'

loop_
_symmetry_equiv_pos_as_xyz
'x,y,z'

loop_
_atom_site_label
_atom_site_type_symbol
_atom_site_fract_x
_atom_site_fract_y
_atom_site_fract_z
C    C    0.919550    0.900920    0.003281
C    C    0.080450    0.900920    0.996720
C    C    0.080450    0.099080    0.996720
C    C    0.919550    0.099080    0.003281
C    C    0.864190    0.899720    0.828340
C    C    0.135810    0.899720    0.171659
C    C    0.135810    0.100280    0.171659
C    C    0.864190    0.100280    0.828340
C    C    0.823670    0.852890    0.827009
C    C    0.176330    0.852890    0.172989
C    C    0.176330    0.147110    0.172989
C    C    0.823670    0.147110    0.827009
C    C    0.840210    0.806190    0.987860
C    C    0.159790    0.806190    0.012141
C    C    0.159790    0.193810    0.012141
C    C    0.840210    0.193810    0.987860
C    C    0.896270    0.807080    0.153919
C    C    0.103730    0.807080    0.846080
C    C    0.103730    0.192920    0.846080
C    C    0.896270    0.192920    0.153919
C    C    0.931750    0.854980    0.177360
C    C    0.068250    0.854980    0.822641
C    C    0.068250    0.145020    0.822641
C    C    0.931750    0.145020    0.177360
C    C    0.790380    0.761870    0.044381
C    C    0.209620    0.761870    0.955620
C    C    0.209620    0.238130    0.955620
C    C    0.790380    0.238130    0.044381
N    N    0.797480    0.726020    0.259991
N    N    0.202520    0.726020    0.740010
N    N    0.202520    0.273980    0.740010
N    N    0.797480    0.273980    0.259991
C    C    0.739880    0.698340    0.439380
C    C    0.260120    0.698340    0.560619
C    C    0.260120    0.301660    0.560619
C    C    0.739880    0.301660    0.439380
C    C    0.750510    0.649370    0.591260
C    C    0.249490    0.649370    0.408741
C    C    0.249490    0.350630    0.408741
C    C    0.750510    0.350630    0.591260
C    C    0.694170    0.623560    0.779241
C    C    0.305830    0.623560    0.220760
C    C    0.305830    0.376440    0.220760
C    C    0.694170    0.376440    0.779241
C    C    0.626710    0.645790    0.802630
C    C    0.373290    0.645790    0.197371
C    C    0.373290    0.354210    0.197371
C    C    0.626710    0.354210    0.802630
C    C    0.620160    0.699650    0.699931
C    C    0.379840    0.699650    0.300070
C    C    0.379840    0.300350    0.300070
C    C    0.620160    0.300350    0.699931
C    C    0.675430    0.724920    0.512259
C    C    0.324570    0.724920    0.487739
C    C    0.324570    0.275080    0.487739
C    C    0.675430    0.275080    0.512259
C    C    0.562830    0.613160    0.910391
C    C    0.437170    0.613160    0.089610
C    C    0.437170    0.386840    0.089610
C    C    0.562830    0.386840    0.910391
C    C    0.558840    0.556960    0.849360
C    C    0.441160    0.556960    0.150641
C    C    0.441160    0.443040    0.150641
C    C    0.558840    0.443040    0.849360
C    C    0.609580    0.528260    0.638330
C    C    0.390420    0.528260    0.361671
C    C    0.390420    0.471740    0.361671
C    C    0.609580    0.471740    0.638330
C    C    0.036940    0.950400    0.991979
C    C    0.963060    0.950400    0.008020
C    C    0.963060    0.049600    0.008020
C    C    0.036940    0.049600    0.991979
H    H    0.852480    0.934650    0.691021
H    H    0.147520    0.934650    0.308980
H    H    0.147520    0.065350    0.308980
H    H    0.852480    0.065350    0.691021
H    H    0.779360    0.853250    0.702841
H    H    0.220640    0.853250    0.297160
H    H    0.220640    0.146750    0.297160
H    H    0.779360    0.146750    0.702841
H    H    0.909160    0.772280    0.289530
H    H    0.090840    0.772280    0.710471
H    H    0.090840    0.227720    0.710471
H    H    0.909160    0.227720    0.289530
H    H    0.969880    0.855700    0.328150
H    H    0.030120    0.855700    0.671851
H    H    0.030120    0.144300    0.671851
H    H    0.969880    0.144300    0.328150
H    H    0.740740    0.767460    0.966120
H    H    0.259260    0.767460    0.033879
H    H    0.259260    0.232540    0.033879
H    H    0.740740    0.232540    0.966120
H    H    0.801890    0.631050    0.560351
H    H    0.198110    0.631050    0.439650
H    H    0.198110    0.368950    0.439650
H    H    0.801890    0.368950    0.560351
H    H    0.702660    0.584990    0.890031
H    H    0.297340    0.584990    0.109970
H    H    0.297340    0.415010    0.109970
H    H    0.702660    0.415010    0.890031
H    H    0.571970    0.722330    0.753151
H    H    0.428030    0.722330    0.246850
H    H    0.428030    0.277670    0.246850
H    H    0.571970    0.277670    0.753151
H    H    0.668040    0.766030    0.432239
H    H    0.331960    0.766030    0.567760
H    H    0.331960    0.233970    0.567760
H    H    0.668040    0.233970    0.432239
H    H    0.648780    0.548780    0.469289
H    H    0.351220    0.548780    0.530709
H    H    0.351220    0.451220    0.530709
H    H    0.648780    0.451220    0.469289
C    C    0.927880    0.000000    0.027190
C    C    0.072120    0.000000    0.972809
C    C    0.500000    0.356530    0.000000
C    C    0.500000    0.643470    0.000000
C    C    0.500000    0.471470    0.000000
C    C    0.500000    0.528530    0.000000
H    H    0.522876    0.318880    0.882312
H    H    0.538622    0.686402    0.840848
H    H    0.128680    0.000000    0.937440
H    H    0.871320    0.000000    0.062560
