data_crystal
 
_cell_length_a    25.10000
_cell_length_b    20.69000
_cell_length_c    7.52000
_cell_angle_alpha 121.40000
_cell_angle_beta  130.90000
_cell_angle_gamma 89.00000
 
_space_group_name_Hall 'P 1'
_space_group_name_H-M_alt  'P 1'
 
loop_
_symmetry_equiv_pos_as_xyz
 'x,y,z' 
 
loop_
_atom_site_label
_atom_site_type_symbol
_atom_site_fract_x
_atom_site_fract_y
_atom_site_fract_z
C          C       0.16457   0.11136   0.33677 
C          C       0.17346   0.04965   0.16495 
C          C       0.21288   0.07376   0.12357 
C          C       0.24229   0.15962   0.24652 
C          C       0.23223   0.22128   0.41152 
C          C       0.19435   0.19744   0.45826 
C          C       0.28202   0.18327   0.19578 
N          N       0.30072   0.25828   0.26936 
C          C       0.33931   0.28412   0.22295 
C          C       0.34881   0.36145   0.27482 
C          C       0.38532   0.38785   0.22758 
C          C       0.41316   0.33783   0.12737 
C          C       0.40376   0.26027   0.07832 
C          C       0.36721   0.23353   0.12509 
C          C       0.45205   0.36462   0.07279 
C          C       0.46089   0.43898   0.09901 
C          C       0.43088   0.49271   0.17060 
C          C       0.84693   0.88357   0.79501 
C          C       0.81715   0.79749   0.67352 
C          C       0.77927   0.77365   0.72025 
C          C       0.76921   0.83531   0.88526 
C          C       0.79862   0.92117   0.00821 
C          C       0.83804   0.94528   0.96683 
C          C       0.72948   0.81166   0.93600 
N          N       0.71078   0.73664   0.86242 
C          C       0.67219   0.71080   0.90883 
C          C       0.66269   0.63348   0.85696 
C          C       0.62618   0.60708   0.90419 
C          C       0.59834   0.65710   0.00441 
C          C       0.60774   0.73466   0.05346 
C          C       0.64429   0.76140   0.00669 
C          C       0.55945   0.63031   0.05899 
C          C       0.55061   0.55595   0.03277 
C          C       0.58062   0.50222   0.96117 
C          C       0.84740   0.02368   0.75475 
C          C       0.88886   0.11240   0.02284 
C          C       0.84868   0.15582   0.05202 
C          C       0.76633   0.11089   0.81453 
C          C       0.72371   0.02213   0.54275 
C          C       0.76436   0.97871   0.51313 
C          C       0.72822   0.15948   0.86615 
N          N       0.65317   0.12328   0.68184 
C          C       0.62016   0.17543   0.74984 
C          C       0.66779   0.26692   0.00818 
C          C       0.63559   0.31746   0.07256 
C          C       0.55517   0.27772   0.88031 
C          C       0.50731   0.18617   0.62454 
C          C       0.53978   0.13521   0.55918 
C          C       0.52189   0.33312   0.94732 
C          C       0.53203   0.40760   0.97918 
C          C       0.57134   0.42941   0.93351 
C          C       0.16410   0.97125   0.37703 
C          C       0.24714   0.01622   0.61866 
C          C       0.28778   0.97280   0.58903 
C          C       0.24517   0.88404   0.31724 
C          C       0.16282   0.83911   0.07973 
C          C       0.12263   0.88253   0.10892 
C          C       0.28328   0.83545   0.26561 
N          N       0.35832   0.87164   0.44992 
C          C       0.39134   0.81949   0.38192 
C          C       0.47172   0.85972   0.57262 
C          C       0.50419   0.80875   0.50726 
C          C       0.45633   0.71721   0.25147 
C          C       0.37591   0.67747   0.05918 
C          C       0.34370   0.72801   0.12356 
C          C       0.48961   0.66180   0.18446 
C          C       0.47947   0.58733   0.15259 
C          C       0.44016   0.56552   0.19826 
C          C       0.52908   0.68192   0.13782 
C          C       0.51041   0.53462   0.07925 
C          C       0.48242   0.31301   0.99396 
C          C       0.50109   0.46031   0.05253 
C          C       0.89113   0.97646   0.73818 
C          C       0.94028   0.00284   0.73173 
C          C       0.96885   0.94872   0.65298 
C          C       0.96491   0.88067   0.65219 
C          C       0.93333   0.86696   0.73397 
C          C       0.88855   0.90783   0.74578 
C          C       0.96739   0.82906   0.88933 
C          C       0.97853   0.09575   0.87506 
C          C       0.03297   0.89918   0.25672 
C          C       0.04411   0.16586   0.24245 
C          C       0.07817   0.12797   0.39781 
C          C       0.12295   0.08710   0.38600 
C          C       0.12037   0.01846   0.39359 
C          C       0.07122   0.99209   0.40005 
C          C       0.04265   0.04620   0.47879 
C          C       0.04659   0.11425   0.47958 
