data_21551N3_PM
_symmetry_space_group_name_H-M    'P1'
_cell_length_a    19.490000
_cell_length_b    24.430000
_cell_length_c    4.280000
_cell_angle_alpha    90.000000
_cell_angle_beta    79.600000
_cell_angle_gamma    90.000000
_symmetry_Int_Tables_number 1

loop_
_symmetry_equiv_pos_as_xyz
'x,y,z'

loop_
_atom_site_label
_atom_site_type_symbol
_atom_site_fract_x
_atom_site_fract_y
_atom_site_fract_z
C1    C    0.919550    0.900920    0.003281
C2    C    0.080450    0.900920    0.996720
C3    C    0.080450    0.099080    0.996720
C4    C    0.919550    0.099080    0.003281
C5    C    0.864190    0.899720    0.828340
C6    C    0.135810    0.899720    0.171659
C7    C    0.135810    0.100280    0.171659
C8    C    0.864190    0.100280    0.828340
C9    C    0.823670    0.852890    0.827009
C10    C    0.176330    0.852890    0.172989
C11    C    0.176330    0.147110    0.172989
C12    C    0.823670    0.147110    0.827009
C13    C    0.840210    0.806190    0.987860
C14    C    0.159790    0.806190    0.012141
C15    C    0.159790    0.193810    0.012141
C16    C    0.840210    0.193810    0.987860
C17    C    0.896270    0.807080    0.153919
C18    C    0.103730    0.807080    0.846080
C19    C    0.103730    0.192920    0.846080
C20    C    0.896270    0.192920    0.153919
C21    C    0.931750    0.854980    0.177360
C22    C    0.068250    0.854980    0.822641
C23    C    0.068250    0.145020    0.822641
C24    C    0.931750    0.145020    0.177360
C25    C    0.790380    0.761870    0.044381
C26    C    0.209620    0.761870    0.955620
C27    C    0.209620    0.238130    0.955620
C28    C    0.790380    0.238130    0.044381
N1    N    0.797480    0.726020    0.259991
N2    N    0.202520    0.726020    0.740010
N3    N    0.202520    0.273980    0.740010
N4    N    0.797480    0.273980    0.259991
C29    C    0.739880    0.698340    0.439380
C30    C    0.260120    0.698340    0.560619
C31    C    0.260120    0.301660    0.560619
C32    C    0.739880    0.301660    0.439380
C33    C    0.750510    0.649370    0.591260
C34    C    0.249490    0.649370    0.408741
C35    C    0.249490    0.350630    0.408741
C36    C    0.750510    0.350630    0.591260
C37    C    0.694170    0.623560    0.779241
C38    C    0.305830    0.623560    0.220760
C39    C    0.305830    0.376440    0.220760
C40    C    0.694170    0.376440    0.779241
C41    C    0.626710    0.645790    0.802630
C42    C    0.373290    0.645790    0.197371
C43    C    0.373290    0.354210    0.197371
C44    C    0.626710    0.354210    0.802630
C45    C    0.620160    0.699650    0.699931
C46    C    0.379840    0.699650    0.300070
C47    C    0.379840    0.300350    0.300070
C48    C    0.620160    0.300350    0.699931
C49    C    0.675430    0.724920    0.512259
C50    C    0.324570    0.724920    0.487739
C51    C    0.324570    0.275080    0.487739
C52    C    0.675430    0.275080    0.512259
C53    C    0.562830    0.613160    0.910391
C54    C    0.437170    0.613160    0.089610
C55    C    0.437170    0.386840    0.089610
C56    C    0.562830    0.386840    0.910391
C57    C    0.558840    0.556960    0.849360
C58    C    0.441160    0.556960    0.150641
C59    C    0.441160    0.443040    0.150641
C60    C    0.558840    0.443040    0.849360
C61    C    0.609580    0.528260    0.638330
C62    C    0.390420    0.528260    0.361671
C63    C    0.390420    0.471740    0.361671
C64    C    0.609580    0.471740    0.638330
C65    C    0.036940    0.950400    0.991979
C66    C    0.963060    0.950400    0.008020
C67    C    0.963060    0.049600    0.008020
C68    C    0.036940    0.049600    0.991979
H1    H    0.852480    0.934650    0.691021
H2    H    0.147520    0.934650    0.308980
H3    H    0.147520    0.065350    0.308980
H4    H    0.852480    0.065350    0.691021
H5    H    0.779360    0.853250    0.702841
H6    H    0.220640    0.853250    0.297160
H7    H    0.220640    0.146750    0.297160
H8    H    0.779360    0.146750    0.702841
H9    H    0.909160    0.772280    0.289530
H10    H    0.090840    0.772280    0.710471
H11    H    0.090840    0.227720    0.710471
H12    H    0.909160    0.227720    0.289530
H13    H    0.969880    0.855700    0.328150
H14    H    0.030120    0.855700    0.671851
H15    H    0.030120    0.144300    0.671851
H16    H    0.969880    0.144300    0.328150
H17    H    0.740740    0.767460    0.966120
H18    H    0.259260    0.767460    0.033879
H19    H    0.259260    0.232540    0.033879
H20    H    0.740740    0.232540    0.966120
H21    H    0.801890    0.631050    0.560351
H22    H    0.198110    0.631050    0.439650
H23    H    0.198110    0.368950    0.439650
H24    H    0.801890    0.368950    0.560351
H25    H    0.702660    0.584990    0.890031
H26    H    0.297340    0.584990    0.109970
H27    H    0.297340    0.415010    0.109970
H28    H    0.702660    0.415010    0.890031
H29    H    0.571970    0.722330    0.753151
H30    H    0.428030    0.722330    0.246850
H31    H    0.428030    0.277670    0.246850
H32    H    0.571970    0.277670    0.753151
H33    H    0.668040    0.766030    0.432239
H34    H    0.331960    0.766030    0.567760
H35    H    0.331960    0.233970    0.567760
H36    H    0.668040    0.233970    0.432239
H37    H    0.648780    0.548780    0.469289
H38    H    0.351220    0.548780    0.530709
H39    H    0.351220    0.451220    0.530709
H40    H    0.648780    0.451220    0.469289
C69    C    0.927880    -0.000000    0.027190
C70    C    0.072120    -0.000000    0.972809
C71    C    0.500000    0.356530    0.000000
C72    C    0.500000    0.643470    0.000000
C73    C    0.500000    0.471470    0.000000
C74    C    0.500000    0.528530    0.000000
H41    H    0.522876    0.318880    -0.117688
H42    H    0.538622    0.686402    -0.159152
H43    H    0.128680    -0.000000    0.937440
H44    H    0.871320    -0.000000    0.062560
