data_crystal
 
_cell_length_a    30.60640
_cell_length_b    28.53300
_cell_length_c    10.03780
_cell_angle_alpha 90.00000
_cell_angle_beta  90.00000
_cell_angle_gamma 90.00000
 
_symmetry_space_group_name_Hall 'P 1'
_symmetry_space_group_name_H-M  'P 1'
 
loop_
_symmetry_equiv_pos_as_xyz
 'x,y,z' 
 
loop_
_atom_site_label
_atom_site_type_symbol
_atom_site_fract_x
_atom_site_fract_y
_atom_site_fract_z
C          C       0.35880   0.20790   0.06493 
C          C       0.64120   0.29210   0.06493 
C          C       0.64120   0.70790   0.93507 
C          C       0.35880   0.79210   0.93507 
C          C       0.85880   0.70790   0.56493 
C          C       0.14120   0.79210   0.56493 
C          C       0.14120   0.20790   0.43507 
C          C       0.85880   0.29210   0.43507 
C          C       0.64120   0.79210   0.93507 
C          C       0.35880   0.70790   0.93507 
C          C       0.35880   0.29210   0.06493 
C          C       0.64120   0.20790   0.06493 
C          C       0.14120   0.29210   0.43507 
C          C       0.85880   0.20790   0.43507 
C          C       0.85880   0.79210   0.56493 
C          C       0.14120   0.70790   0.56493 
C          C       0.45148   0.22454   0.68101 
C          C       0.54852   0.27546   0.68101 
C          C       0.54852   0.72454   0.31899 
C          C       0.45148   0.77546   0.31899 
C          C       0.95148   0.72454   0.18101 
C          C       0.04852   0.77546   0.18101 
C          C       0.04852   0.22454   0.81899 
C          C       0.95148   0.27546   0.81899 
C          C       0.54852   0.77546   0.31899 
C          C       0.45148   0.72454   0.31899 
C          C       0.45148   0.27546   0.68101 
C          C       0.54852   0.22454   0.68101 
C          C       0.04852   0.27546   0.81899 
C          C       0.95148   0.22454   0.81899 
C          C       0.95148   0.77546   0.18101 
C          C       0.04852   0.72454   0.18101 
C          C       0.33314   0.20795   0.18331 
C          C       0.66686   0.29205   0.18331 
C          C       0.66686   0.70795   0.81669 
C          C       0.33314   0.79205   0.81669 
C          C       0.83314   0.70795   0.68331 
C          C       0.16686   0.79205   0.68331 
C          C       0.16686   0.20795   0.31669 
C          C       0.83314   0.29205   0.31669 
C          C       0.66686   0.79205   0.81669 
C          C       0.33314   0.70795   0.81669 
C          C       0.33314   0.29205   0.18331 
C          C       0.66686   0.20795   0.18331 
C          C       0.16686   0.29205   0.31669 
C          C       0.83314   0.20795   0.31669 
C          C       0.83314   0.79205   0.68331 
C          C       0.16686   0.70795   0.68331 
H          H       0.32339   0.17474   0.22624 
H          H       0.67661   0.32526   0.22624 
H          H       0.67661   0.67474   0.77376 
H          H       0.32339   0.82526   0.77376 
H          H       0.82339   0.67474   0.72624 
H          H       0.17661   0.82526   0.72624 
H          H       0.17661   0.17474   0.27376 
H          H       0.82339   0.32526   0.27376 
H          H       0.67661   0.82526   0.77376 
H          H       0.32339   0.67474   0.77376 
H          H       0.32339   0.32526   0.22624 
H          H       0.67661   0.17474   0.22624 
H          H       0.17661   0.32526   0.27376 
H          H       0.82339   0.17474   0.27376 
H          H       0.82339   0.82526   0.72624 
H          H       0.17661   0.67474   0.72624 
C          C       0.53936   0.39193   0.18182 
C          C       0.46064   0.10807   0.18182 
C          C       0.46064   0.89193   0.81818 
C          C       0.53936   0.60807   0.81818 
C          C       0.03936   0.89193   0.68182 
C          C       0.96064   0.60807   0.68182 
C          C       0.96064   0.39193   0.31818 
C          C       0.03936   0.10807   0.31818 
C          C       0.46064   0.60807   0.81818 
C          C       0.53936   0.89193   0.81818 
C          C       0.53936   0.10807   0.18182 
C          C       0.46064   0.39193   0.18182 
C          C       0.96064   0.10807   0.31818 
C          C       0.03936   0.39193   0.31818 
C          C       0.03936   0.60807   0.68182 
C          C       0.96064   0.89193   0.68182 
C          C       0.52287   0.30159   0.57613 
C          C       0.47713   0.19841   0.57613 
C          C       0.47713   0.80159   0.42387 
C          C       0.52287   0.69841   0.42387 
C          C       0.02287   0.80159   0.07613 
C          C       0.97713   0.69841   0.07613 
C          C       0.97713   0.30159   0.92387 
C          C       0.02287   0.19841   0.92387 
C          C       0.47713   0.69841   0.42387 
C          C       0.52287   0.80159   0.42387 
C          C       0.52287   0.19841   0.57613 
C          C       0.47713   0.30159   0.57613 
C          C       0.97713   0.19841   0.92387 
C          C       0.02287   0.30159   0.92387 
C          C       0.02287   0.69841   0.07613 
C          C       0.97713   0.80159   0.07613 
C          C       0.53933   0.41778   0.06146 
C          C       0.46067   0.08222   0.06146 
C          C       0.46067   0.91778   0.93854 
C          C       0.53933   0.58222   0.93854 
C          C       0.03933   0.91778   0.56146 
C          C       0.96067   0.58222   0.56146 
C          C       0.96067   0.41778   0.43854 
C          C       0.03933   0.08222   0.43854 
C          C       0.46067   0.58222   0.93854 
C          C       0.53933   0.91778   0.93854 
C          C       0.53933   0.08222   0.06146 
C          C       0.46067   0.41778   0.06146 
C          C       0.96067   0.08222   0.43854 
C          C       0.03933   0.41778   0.43854 
C          C       0.03933   0.58222   0.56146 
C          C       0.96067   0.91778   0.56146 
H          H       0.57021   0.42766   0.01701 
H          H       0.42979   0.07234   0.01701 
H          H       0.42979   0.92766   0.98299 
H          H       0.57021   0.57234   0.98299 
H          H       0.07021   0.92766   0.51701 
H          H       0.92979   0.57234   0.51701 
H          H       0.92979   0.42766   0.48299 
H          H       0.07021   0.07234   0.48299 
H          H       0.42979   0.57234   0.98299 
H          H       0.57021   0.92766   0.98299 
H          H       0.57021   0.07234   0.01701 
H          H       0.42979   0.42766   0.01701 
H          H       0.92979   0.07234   0.48299 
H          H       0.07021   0.42766   0.48299 
H          H       0.07021   0.57234   0.51701 
H          H       0.92979   0.92766   0.51701 
C          C       0.26242   0.20799   0.68528 
C          C       0.73758   0.29201   0.68528 
C          C       0.73758   0.70799   0.31472 
C          C       0.26242   0.79201   0.31472 
C          C       0.76242   0.70799   0.18528 
C          C       0.23758   0.79201   0.18528 
C          C       0.23758   0.20799   0.81472 
C          C       0.76242   0.29201   0.81472 
C          C       0.73758   0.79201   0.31472 
C          C       0.26242   0.70799   0.31472 
C          C       0.26242   0.29201   0.68528 
C          C       0.73758   0.20799   0.68528 
C          C       0.23758   0.29201   0.81472 
C          C       0.76242   0.20799   0.81472 
C          C       0.76242   0.79201   0.18528 
C          C       0.23758   0.70799   0.18528 
C          C       0.53935   0.48680   0.55987 
C          C       0.46065   0.01320   0.55987 
C          C       0.46065   0.98680   0.44013 
C          C       0.53935   0.51320   0.44013 
C          C       0.03935   0.98680   0.05987 
C          C       0.96065   0.51320   0.05987 
C          C       0.96065   0.48680   0.94013 
C          C       0.03935   0.01320   0.94013 
C          C       0.46065   0.51320   0.44013 
C          C       0.53935   0.98680   0.44013 
C          C       0.53935   0.01320   0.55987 
C          C       0.46065   0.48680   0.55987 
C          C       0.96065   0.01320   0.94013 
C          C       0.03935   0.48680   0.94013 
C          C       0.03935   0.51320   0.05987 
C          C       0.96065   0.98680   0.05987 
S          S       0.58232   0.19831   0.79798 
S          S       0.41768   0.30169   0.79798 
S          S       0.41768   0.69831   0.20202 
S          S       0.58232   0.80169   0.20202 
S          S       0.08232   0.69831   0.29798 
S          S       0.91768   0.80169   0.29798 
S          S       0.91768   0.19831   0.70202 
S          S       0.08232   0.30169   0.70202 
S          S       0.41768   0.80169   0.20202 
S          S       0.58232   0.69831   0.20202 
S          S       0.58232   0.30169   0.79798 
S          S       0.41768   0.19831   0.79798 
S          S       0.91768   0.30169   0.70202 
S          S       0.08232   0.19831   0.70202 
S          S       0.08232   0.80169   0.29798 
S          S       0.91768   0.69831   0.29798 
S          S       0.54808   0.33329   0.45218 
S          S       0.45192   0.16671   0.45218 
S          S       0.45192   0.83329   0.54782 
S          S       0.54808   0.66671   0.54782 
S          S       0.04808   0.83329   0.95218 
S          S       0.95192   0.66671   0.95218 
S          S       0.95192   0.33329   0.04782 
S          S       0.04808   0.16671   0.04782 
S          S       0.45192   0.66671   0.54782 
S          S       0.54808   0.83329   0.54782 
S          S       0.54808   0.16671   0.45218 
S          S       0.45192   0.33329   0.45218 
S          S       0.95192   0.16671   0.04782 
S          S       0.04808   0.33329   0.04782 
S          S       0.04808   0.66671   0.95218 
S          S       0.95192   0.83329   0.95218 
H          H       0.36797   0.17439   0.02306 
H          H       0.63203   0.32561   0.02306 
H          H       0.63203   0.67439   0.97694 
H          H       0.36797   0.82561   0.97694 
H          H       0.86797   0.67439   0.52306 
H          H       0.13203   0.82561   0.52306 
H          H       0.13203   0.17439   0.47694 
H          H       0.86797   0.32561   0.47694 
H          H       0.63203   0.82561   0.97694 
H          H       0.36797   0.67439   0.97694 
H          H       0.36797   0.32561   0.02306 
H          H       0.63203   0.17439   0.02306 
H          H       0.13203   0.32561   0.47694 
H          H       0.86797   0.17439   0.47694 
H          H       0.86797   0.82561   0.52306 
H          H       0.13203   0.67439   0.52306 
H          H       0.57060   0.38263   0.22464 
H          H       0.42940   0.11737   0.22464 
H          H       0.42940   0.88263   0.77536 
H          H       0.57060   0.61737   0.77536 
H          H       0.07060   0.88263   0.72464 
H          H       0.92940   0.61737   0.72464 
H          H       0.92940   0.38263   0.27536 
H          H       0.07060   0.11737   0.27536 
H          H       0.42940   0.61737   0.77536 
H          H       0.57060   0.88263   0.77536 
H          H       0.57060   0.11737   0.22464 
H          H       0.42940   0.38263   0.22464 
H          H       0.92940   0.11737   0.27536 
H          H       0.07060   0.38263   0.27536 
H          H       0.07060   0.61737   0.72464 
H          H       0.92940   0.88263   0.72464 
H          H       0.27182   0.17475   0.64195 
H          H       0.72818   0.32525   0.64195 
H          H       0.72818   0.67475   0.35805 
H          H       0.27182   0.82525   0.35805 
H          H       0.77182   0.67475   0.14195 
H          H       0.22818   0.82525   0.14195 
H          H       0.22818   0.17475   0.85805 
H          H       0.77182   0.32525   0.85805 
H          H       0.72818   0.82525   0.35805 
H          H       0.27182   0.67475   0.35805 
H          H       0.27182   0.32525   0.64195 
H          H       0.72818   0.17475   0.64195 
H          H       0.22818   0.32525   0.85805 
H          H       0.77182   0.17475   0.85805 
H          H       0.77182   0.82525   0.14195 
H          H       0.22818   0.67475   0.14195 
H          H       0.57027   0.47693   0.60413 
H          H       0.42973   0.02307   0.60413 
H          H       0.42973   0.97693   0.39587 
H          H       0.57027   0.52307   0.39587 
H          H       0.07027   0.97693   0.10413 
H          H       0.92973   0.52307   0.10413 
H          H       0.92973   0.47693   0.89587 
H          H       0.07027   0.02307   0.89587 
H          H       0.42973   0.52307   0.39587 
H          H       0.57027   0.97693   0.39587 
H          H       0.57027   0.02307   0.60413 
H          H       0.42973   0.47693   0.60413 
H          H       0.92973   0.02307   0.89587 
H          H       0.07027   0.47693   0.89587 
H          H       0.07027   0.52307   0.10413 
H          H       0.92973   0.97693   0.10413 
C          C       0.28969   0.25000   0.36910 
C          C       0.71031   0.25000   0.36910 
C          C       0.71031   0.75000   0.63090 
C          C       0.28969   0.75000   0.63090 
C          C       0.78969   0.75000   0.86910 
C          C       0.21031   0.75000   0.86910 
C          C       0.21031   0.25000   0.13090 
C          C       0.78969   0.25000   0.13090 
C          C       0.40081   0.25000   0.87423 
C          C       0.59919   0.25000   0.87423 
C          C       0.59919   0.75000   0.12577 
C          C       0.40081   0.75000   0.12577 
C          C       0.90081   0.75000   0.37423 
C          C       0.09919   0.75000   0.37423 
C          C       0.09919   0.25000   0.62577 
C          C       0.90081   0.25000   0.62577 
C          C       0.31982   0.25000   0.24542 
C          C       0.68018   0.25000   0.24542 
C          C       0.68018   0.75000   0.75458 
C          C       0.31982   0.75000   0.75458 
C          C       0.81982   0.75000   0.74542 
C          C       0.18018   0.75000   0.74542 
C          C       0.18018   0.25000   0.25458 
C          C       0.81982   0.25000   0.25458 
C          C       0.30348   0.25000   0.49716 
C          C       0.69652   0.25000   0.49716 
C          C       0.69652   0.75000   0.50284 
C          C       0.30348   0.75000   0.50284 
C          C       0.80348   0.75000   0.99716 
C          C       0.19652   0.75000   0.99716 
C          C       0.19652   0.25000   0.00284 
C          C       0.80348   0.25000   0.00284 
C          C       0.34930   0.25000   0.51086 
C          C       0.65070   0.25000   0.51086 
C          C       0.65070   0.75000   0.48914 
C          C       0.34930   0.75000   0.48914 
C          C       0.84930   0.75000   0.01086 
C          C       0.15070   0.75000   0.01086 
C          C       0.15070   0.25000   0.98914 
C          C       0.84930   0.25000   0.98914 
C          C       0.27427   0.25000   0.62078 
C          C       0.72573   0.25000   0.62078 
C          C       0.72573   0.75000   0.37922 
C          C       0.27427   0.75000   0.37922 
C          C       0.77427   0.75000   0.12078 
C          C       0.22573   0.75000   0.12078 
C          C       0.22573   0.25000   0.87922 
C          C       0.77427   0.25000   0.87922 
N          N       0.38668   0.25000   0.50841 
N          N       0.61332   0.25000   0.50841 
N          N       0.61332   0.75000   0.49159 
N          N       0.38668   0.75000   0.49159 
N          N       0.88668   0.75000   0.00841 
N          N       0.11332   0.75000   0.00841 
N          N       0.11332   0.25000   0.99159 
N          N       0.88668   0.25000   0.99159 
H          H       0.24487   0.25000   0.14359 
H          H       0.75513   0.25000   0.14359 
H          H       0.75513   0.75000   0.85641 
H          H       0.24487   0.75000   0.85641 
H          H       0.74487   0.75000   0.64359 
H          H       0.25513   0.75000   0.64359 
H          H       0.25513   0.25000   0.35641 
H          H       0.74487   0.25000   0.35641 
C          C       0.50000   0.46160   0.87310 
C          C       0.50000   0.03840   0.87310 
C          C       0.50000   0.96160   0.12690 
C          C       0.50000   0.53840   0.12690 
C          C       0.00000   0.96160   0.37310 
C          C       0.00000   0.53840   0.37310 
C          C       0.00000   0.46160   0.62690 
C          C       0.00000   0.03840   0.62690 
C          C       0.50000   0.37852   0.24562 
C          C       0.50000   0.12148   0.24562 
C          C       0.50000   0.87852   0.75438 
C          C       0.50000   0.62148   0.75438 
C          C       0.00000   0.87852   0.74562 
C          C       0.00000   0.62148   0.74562 
C          C       0.00000   0.37852   0.25438 
C          C       0.00000   0.12148   0.25438 
C          C       0.50000   0.43135   0.99961 
C          C       0.50000   0.06865   0.99961 
C          C       0.50000   0.93135   0.00039 
C          C       0.50000   0.56865   0.00039 
C          C       0.00000   0.93135   0.49961 
C          C       0.00000   0.56865   0.49961 
C          C       0.00000   0.43135   0.50039 
C          C       0.00000   0.06865   0.50039 
C          C       0.50000   0.44425   0.74906 
C          C       0.50000   0.05575   0.74906 
C          C       0.50000   0.94425   0.25094 
C          C       0.50000   0.55575   0.25094 
C          C       0.00000   0.94425   0.24906 
C          C       0.00000   0.55575   0.24906 
C          C       0.00000   0.44425   0.75094 
C          C       0.00000   0.05575   0.75094 
C          C       0.50000   0.39515   0.75185 
C          C       0.50000   0.10485   0.75185 
C          C       0.50000   0.89515   0.24815 
C          C       0.50000   0.60485   0.24815 
C          C       0.00000   0.89515   0.25185 
C          C       0.00000   0.60485   0.25185 
C          C       0.00000   0.39515   0.74815 
C          C       0.00000   0.10485   0.74815 
C          C       0.50000   0.47319   0.62203 
C          C       0.50000   0.02681   0.62203 
C          C       0.50000   0.97319   0.37797 
C          C       0.50000   0.52681   0.37797 
C          C       0.00000   0.97319   0.12203 
C          C       0.00000   0.52681   0.12203 
C          C       0.00000   0.47319   0.87797 
C          C       0.00000   0.02681   0.87797 
C          C       0.50000   0.64969   0.62467 
C          C       0.50000   0.85031   0.62467 
C          C       0.50000   0.14969   0.37533 
C          C       0.50000   0.35031   0.37533 
C          C       0.00000   0.14969   0.12467 
C          C       0.00000   0.35031   0.12467 
C          C       0.00000   0.64969   0.87533 
C          C       0.00000   0.85031   0.87533 
H          H       0.50000   0.49834   0.87954 
H          H       0.50000   0.00166   0.87954 
H          H       0.50000   0.99834   0.12046 
H          H       0.50000   0.50166   0.12046 
H          H       0.00000   0.99834   0.37954 
H          H       0.00000   0.50166   0.37954 
H          H       0.00000   0.49834   0.62046 
H          H       0.00000   0.00166   0.62046 
N          N       0.50000   0.64359   0.21901 
N          N       0.50000   0.85641   0.21901 
N          N       0.50000   0.14359   0.78099 
N          N       0.50000   0.35641   0.78099 
N          N       0.00000   0.14359   0.71901 
N          N       0.00000   0.35641   0.71901 
N          N       0.00000   0.64359   0.28099 
N          N       0.00000   0.85641   0.28099 
C          C       0.37231   0.75000   0.99829 
C          C       0.62769   0.75000   0.99829 
C          C       0.62769   0.25000   0.00171 
C          C       0.37231   0.25000   0.00171 
C          C       0.87231   0.25000   0.49829 
C          C       0.12769   0.25000   0.49829 
C          C       0.12769   0.75000   0.50171 
C          C       0.87231   0.75000   0.50171 
