data_crystal
 
_cell_length_a    22.63000
_cell_length_b    49.06000
_cell_length_c    23.00000
_cell_angle_alpha 90.00000
_cell_angle_beta  88.55000
_cell_angle_gamma 90.00000
 
_space_group_name_Hall 'P 1'
_space_group_name_H-M_alt  'P 1'
 
loop_
_symmetry_equiv_pos_as_xyz
 'x,y,z' 
 
loop_
_atom_site_label
_atom_site_type_symbol
_atom_site_fract_x
_atom_site_fract_y
_atom_site_fract_z
C          C       0.10667   0.29492   0.10522 
C          C       0.89333   0.29492   0.89478 
C          C       0.89333   0.70508   0.89478 
C          C       0.10667   0.70508   0.10522 
C          C       0.12007   0.28056   0.05130 
C          C       0.87993   0.28056   0.94870 
C          C       0.87993   0.71944   0.94870 
C          C       0.12007   0.71944   0.05130 
C          C       0.07376   0.26342   0.03030 
C          C       0.92624   0.26342   0.96970 
C          C       0.92624   0.73658   0.96970 
C          C       0.07376   0.73658   0.03030 
C          C       0.02389   0.26430   0.06990 
C          C       0.97611   0.26430   0.93010 
C          C       0.97611   0.73570   0.93010 
C          C       0.02389   0.73570   0.06990 
S          S       0.03552   0.28575   0.12944 
S          S       0.96448   0.28575   0.87056 
S          S       0.96448   0.71425   0.87056 
S          S       0.03552   0.71425   0.12944 
C          C       0.14486   0.31603   0.14137 
C          C       0.85514   0.31603   0.85863 
C          C       0.85514   0.68397   0.85863 
C          C       0.14486   0.68397   0.14137 
C          C       0.20662   0.32209   0.13224 
C          C       0.79338   0.32209   0.86776 
C          C       0.79338   0.67791   0.86776 
C          C       0.20662   0.67791   0.13224 
C          C       0.23813   0.34142   0.16820 
C          C       0.76187   0.34142   0.83180 
C          C       0.76187   0.65858   0.83180 
C          C       0.23813   0.65858   0.16820 
C          C       0.21003   0.35633   0.21554 
C          C       0.78997   0.35633   0.78446 
C          C       0.78997   0.64367   0.78446 
C          C       0.21003   0.64367   0.21554 
C          C       0.14882   0.35015   0.22374 
C          C       0.85118   0.35015   0.77626 
C          C       0.85118   0.64985   0.77626 
C          C       0.14882   0.64985   0.22374 
C          C       0.11804   0.33094   0.18893 
C          C       0.88196   0.33094   0.81107 
C          C       0.88196   0.66906   0.81107 
C          C       0.11804   0.66906   0.18893 
C          C       0.23762   0.37897   0.25626 
C          C       0.76238   0.37897   0.74374 
C          C       0.76238   0.62103   0.74374 
C          C       0.23762   0.62103   0.25626 
C          C       0.38009   0.44897   0.37715 
C          C       0.61991   0.44897   0.62285 
C          C       0.61991   0.55103   0.62285 
C          C       0.38009   0.55103   0.37715 
C          C       0.41187   0.42811   0.34677 
C          C       0.58813   0.42811   0.65323 
C          C       0.58813   0.57189   0.65323 
C          C       0.41187   0.57189   0.34677 
C          C       0.38351   0.40783   0.31158 
C          C       0.61649   0.40783   0.68842 
C          C       0.61649   0.59217   0.68842 
C          C       0.38351   0.59217   0.31158 
C          C       0.32125   0.40654   0.30388 
C          C       0.67875   0.40654   0.69612 
C          C       0.67875   0.59346   0.69612 
C          C       0.32125   0.59346   0.30388 
C          C       0.28918   0.42711   0.33476 
C          C       0.71082   0.42711   0.66524 
C          C       0.71082   0.57289   0.66524 
C          C       0.28918   0.57289   0.33476 
C          C       0.31756   0.44750   0.36948 
C          C       0.68244   0.44750   0.63052 
C          C       0.68244   0.55250   0.63052 
C          C       0.31756   0.55250   0.36948 
N          N       0.29445   0.38535   0.26466 
N          N       0.70555   0.38535   0.73534 
N          N       0.70555   0.61465   0.73534 
N          N       0.29445   0.61465   0.26466 
C          C       0.41004   0.47438   0.40761 
C          C       0.58996   0.47438   0.59239 
C          C       0.58996   0.52562   0.59239 
C          C       0.41004   0.52562   0.40761 
C          C       0.45526   0.47487   0.45322 
C          C       0.54474   0.47487   0.54678 
C          C       0.54474   0.52513   0.54678 
C          C       0.45526   0.52513   0.45322 
C          C       0.47849   0.45114   0.47775 
C          C       0.52151   0.45114   0.52225 
C          C       0.52151   0.54886   0.52225 
C          C       0.47849   0.54886   0.47775 
C          C       0.11470   0.78611   0.90030 
C          C       0.88530   0.78611   0.09970 
C          C       0.88530   0.21389   0.09970 
C          C       0.11470   0.21389   0.90030 
S          S       0.04869   0.77544   0.87179 
S          S       0.95131   0.77544   0.12821 
S          S       0.95131   0.22456   0.12821 
S          S       0.04869   0.22456   0.87179 
C          C       0.03132   0.75379   0.93092 
C          C       0.96868   0.75379   0.06908 
C          C       0.96868   0.24621   0.06908 
C          C       0.03132   0.24621   0.93092 
C          C       0.07611   0.75373   0.97294 
C          C       0.92389   0.75373   0.02706 
C          C       0.92389   0.24627   0.02706 
C          C       0.07611   0.24627   0.97294 
C          C       0.12244   0.77209   0.95473 
C          C       0.87756   0.77209   0.04527 
C          C       0.87756   0.22791   0.04527 
C          C       0.12244   0.22791   0.95473 
C          C       0.15610   0.80801   0.86800 
C          C       0.84390   0.80801   0.13200 
C          C       0.84390   0.19199   0.13200 
C          C       0.15610   0.19199   0.86800 
C          C       0.14746   0.81711   0.80887 
C          C       0.85254   0.81711   0.19113 
C          C       0.85254   0.18289   0.19113 
C          C       0.14746   0.18289   0.80887 
C          C       0.18375   0.83744   0.77914 
C          C       0.81625   0.83744   0.22086 
C          C       0.81625   0.16256   0.22086 
C          C       0.18375   0.16256   0.77914 
C          C       0.23118   0.85055   0.80662 
C          C       0.76882   0.85055   0.19338 
C          C       0.76882   0.14945   0.19338 
C          C       0.23118   0.14945   0.80662 
C          C       0.23960   0.84144   0.86557 
C          C       0.76040   0.84144   0.13443 
C          C       0.76040   0.15856   0.13443 
C          C       0.23960   0.15856   0.86557 
C          C       0.20402   0.82097   0.89488 
C          C       0.79598   0.82097   0.10512 
C          C       0.79598   0.17903   0.10512 
C          C       0.20402   0.17903   0.89488 
C          C       0.27128   0.87400   0.77916 
C          C       0.72872   0.87400   0.22084 
C          C       0.72872   0.12600   0.22084 
C          C       0.27128   0.12600   0.77916 
C          C       0.38174   0.94866   0.63117 
C          C       0.61826   0.94866   0.36883 
C          C       0.61826   0.05134   0.36883 
C          C       0.38174   0.05134   0.63117 
C          C       0.35163   0.92807   0.60093 
C          C       0.64837   0.92807   0.39907 
C          C       0.64837   0.07193   0.39907 
C          C       0.35163   0.07193   0.60093 
C          C       0.31869   0.90691   0.63124 
C          C       0.68131   0.90691   0.36876 
C          C       0.68131   0.09309   0.36876 
C          C       0.31869   0.09309   0.63124 
C          C       0.31345   0.90443   0.69395 
C          C       0.68655   0.90443   0.30605 
C          C       0.68655   0.09557   0.30605 
C          C       0.31345   0.09557   0.69395 
C          C       0.34393   0.92478   0.72452 
C          C       0.65607   0.92478   0.27548 
C          C       0.65607   0.07522   0.27548 
C          C       0.34393   0.07522   0.72452 
C          C       0.37629   0.94614   0.69421 
C          C       0.62371   0.94614   0.30579 
C          C       0.62371   0.05386   0.30579 
C          C       0.37629   0.05386   0.69421 
N          N       0.27624   0.88240   0.72280 
N          N       0.72376   0.88240   0.27720 
N          N       0.72376   0.11760   0.27720 
N          N       0.27624   0.11760   0.72280 
C          C       0.41085   0.97440   0.59956 
C          C       0.58915   0.97440   0.40044 
C          C       0.58915   0.02560   0.40044 
C          C       0.41085   0.02560   0.59956 
C          C       0.45484   0.97492   0.54958 
C          C       0.54516   0.97492   0.45042 
C          C       0.54516   0.02508   0.45042 
C          C       0.45484   0.02508   0.54958 
C          C       0.47852   0.95116   0.52389 
C          C       0.52148   0.95116   0.47611 
C          C       0.52148   0.04884   0.47611 
C          C       0.47852   0.04884   0.52389 
H          H       0.16193   0.28284   0.02721 
H          H       0.83807   0.28284   0.97279 
H          H       0.83807   0.71716   0.97279 
H          H       0.16193   0.71716   0.02721 
H          H       0.23116   0.31173   0.09720 
H          H       0.76884   0.31173   0.90280 
H          H       0.76884   0.68827   0.90280 
H          H       0.23116   0.68827   0.09720 
H          H       0.28465   0.34490   0.15834 
H          H       0.71535   0.34490   0.84166 
H          H       0.71535   0.65510   0.84166 
H          H       0.28465   0.65510   0.15834 
H          H       0.12353   0.36045   0.25841 
H          H       0.87647   0.36045   0.74159 
H          H       0.87647   0.63955   0.74159 
H          H       0.12353   0.63955   0.25841 
H          H       0.07151   0.32788   0.19960 
H          H       0.92849   0.32788   0.80040 
H          H       0.92849   0.67212   0.80040 
H          H       0.07151   0.67212   0.19960 
H          H       0.20470   0.39013   0.28198 
H          H       0.79530   0.39013   0.71802 
H          H       0.79530   0.60987   0.71802 
H          H       0.20470   0.60987   0.28198 
H          H       0.45957   0.42798   0.34819 
H          H       0.54043   0.42798   0.65181 
H          H       0.54043   0.57202   0.65181 
H          H       0.45957   0.57202   0.34819 
H          H       0.41095   0.39297   0.28906 
H          H       0.58905   0.39297   0.71094 
H          H       0.58905   0.60703   0.71094 
H          H       0.41095   0.60703   0.28906 
H          H       0.24180   0.42797   0.33131 
H          H       0.75820   0.42797   0.66869 
H          H       0.75820   0.57203   0.66869 
H          H       0.24180   0.57203   0.33131 
H          H       0.28977   0.46277   0.39021 
H          H       0.71023   0.46277   0.60979 
H          H       0.71023   0.53723   0.60979 
H          H       0.28977   0.53723   0.39021 
H          H       0.46294   0.43194   0.46239 
H          H       0.53706   0.43194   0.53761 
H          H       0.53706   0.56806   0.53761 
H          H       0.46294   0.56806   0.46239 
H          H       0.16062   0.77527   0.98094 
H          H       0.83938   0.77527   0.01906 
H          H       0.83938   0.22473   0.01906 
H          H       0.16062   0.22473   0.98094 
H          H       0.11176   0.80836   0.78502 
H          H       0.88824   0.80836   0.21498 
H          H       0.88824   0.19164   0.21498 
H          H       0.11176   0.19164   0.78502 
H          H       0.17393   0.84321   0.73454 
H          H       0.82607   0.84321   0.26546 
H          H       0.82607   0.15679   0.26546 
H          H       0.17393   0.15679   0.73454 
H          H       0.27462   0.85042   0.88999 
H          H       0.72538   0.85042   0.11001 
H          H       0.72538   0.14958   0.11001 
H          H       0.27462   0.14958   0.88999 
H          H       0.21383   0.81561   0.93969 
H          H       0.78617   0.81561   0.06031 
H          H       0.78617   0.18439   0.06031 
H          H       0.21383   0.18439   0.93969 
H          H       0.29888   0.88381   0.81048 
H          H       0.70112   0.88381   0.18952 
H          H       0.70112   0.11619   0.18952 
H          H       0.29888   0.11619   0.81048 
H          H       0.35157   0.92880   0.55319 
H          H       0.64843   0.92880   0.44681 
H          H       0.64843   0.07120   0.44681 
H          H       0.35157   0.07120   0.55319 
H          H       0.29607   0.89228   0.60513 
H          H       0.70393   0.89228   0.39487 
H          H       0.70393   0.10772   0.39487 
H          H       0.29607   0.10772   0.60513 
H          H       0.34181   0.92469   0.77224 
H          H       0.65819   0.92469   0.22776 
H          H       0.65819   0.07531   0.22776 
H          H       0.34181   0.07531   0.77224 
H          H       0.39705   0.96120   0.72082 
H          H       0.60295   0.96120   0.27918 
H          H       0.60295   0.03880   0.27918 
H          H       0.39705   0.03880   0.72082 
H          H       0.46382   0.93195   0.54119 
H          H       0.53618   0.93195   0.45881 
H          H       0.53618   0.06805   0.45881 
H          H       0.46382   0.06805   0.54119 
C          C       0.39007   0.50000   0.38794 
C          C       0.60993   0.50000   0.61206 
C          C       0.47759   0.50000   0.47648 
C          C       0.52241   0.50000   0.52352 
C          C       0.39186   0.00000   0.62210 
C          C       0.60814   0.00000   0.37790 
C          C       0.47729   0.00000   0.52486 
C          C       0.52271   0.00000   0.47514 
H          H       0.35807   0.50000   0.35370 
H          H       0.64193   0.50000   0.64630 
H          H       0.64117   0.00000   0.34196 
H          H       0.35883   0.00000   0.65804 
