data_crystal
 
_cell_length_a    21.93720
_cell_length_b    21.93720
_cell_length_c    3.40000
_cell_angle_alpha 90.00000
_cell_angle_beta  90.00000
_cell_angle_gamma 120.00000
 
_symmetry_space_group_name_Hall 'P 1'
_symmetry_space_group_name_H-M  'P 1'
 
loop_
_symmetry_equiv_pos_as_xyz
 'x,y,z' 
 
loop_
_atom_site_label
_atom_site_type_symbol
_atom_site_fract_x
_atom_site_fract_y
_atom_site_fract_z
_atom_site_charge
O          O       0.54910   0.47202   1.47059   0.0000000000
O          O       0.42291   0.45090   1.47059   0.0000000000
O          O       0.52798   0.57709   1.47059   0.0000000000
B          B       0.57507   0.54782   1.47059   0.0000000000
B          B       0.47275   0.42493   1.47059   0.0000000000
B          B       0.45218   0.52725   1.47059   0.0000000000
O          O       0.11756   0.86131   1.47281   0.0000000000
O          O       0.24375   0.88244   1.47268   0.0000000000
O          O       0.13869   0.75625   1.47251   0.0000000000
B          B       0.09160   0.78551   1.47265   0.0000000000
B          B       0.19391   0.90840   1.47282   0.0000000000
B          B       0.21449   0.80608   1.47253   0.0000000000
C          C       0.77033   0.71333   1.47115   0.0000000000
C          C       0.65200   0.59684   1.47089   0.0000000000
S          S       0.71851   0.57189   1.47130   0.0000000000
C          C       0.79484   0.65834   1.47137   0.0000000000
C          C       0.68859   0.67811   1.47098   0.0000000000
C          C       0.01466   0.73650   1.47236   0.0000000000
S          S       0.94816   0.76144   1.47209   0.0000000000
C          C       0.87183   0.67498   1.47187   0.0000000000
C          C       0.89635   0.62000   1.47188   0.0000000000
C          C       0.97809   0.65523   1.47198   0.0000000000
H          H       0.65909   0.70874   1.47088   0.0000000000
H          H       0.00759   0.62461   1.47182   0.0000000000
H          H       0.80772   0.77264   1.47114   0.0000000000
H          H       0.85895   0.56066   1.47175   0.0000000000
C          C       0.28666   0.55700   1.47115   0.0000000000
C          C       0.40316   0.55517   1.47089   0.0000000000
S          S       0.42811   0.64662   1.47130   0.0000000000
C          C       0.34165   0.63649   1.47137   0.0000000000
C          C       0.32189   0.51048   1.47098   0.0000000000
C          C       0.26350   0.77817   1.47236   0.0000000000
S          S       0.23856   0.68671   1.47209   0.0000000000
C          C       0.32502   0.69685   1.47187   0.0000000000
C          C       0.38000   0.77635   1.47188   0.0000000000
C          C       0.34477   0.82286   1.47199   0.0000000000
H          H       0.29125   0.45035   1.47088   0.0000000000
H          H       0.37539   0.88298   1.47182   0.0000000000
H          H       0.22736   0.53508   1.47114   0.0000000000
H          H       0.43934   0.79829   1.47175   0.0000000000
C          C       0.44300   0.22967   1.47115   0.0000000000
C          C       0.44483   0.34799   1.47089   0.0000000000
S          S       0.35338   0.28149   1.47130   0.0000000000
C          C       0.36351   0.20516   1.47137   0.0000000000
C          C       0.48952   0.31141   1.47098   0.0000000000
C          C       0.22183   0.98533   1.47237   0.0000000000
S          S       0.31329   0.05184   1.47209   0.0000000000
C          C       0.30315   0.12817   1.47187   0.0000000000
C          C       0.22365   0.10365   1.47188   0.0000000000
C          C       0.17713   0.02191   1.47199   0.0000000000
H          H       0.54965   0.34091   1.47088   0.0000000000
H          H       0.11702   0.99241   1.47182   0.0000000000
H          H       0.46492   0.19228   1.47114   0.0000000000
H          H       0.20171   0.14105   1.47176   0.0000000000
