data_crystal
 
_cell_length_a    42.68600
_cell_length_b    42.68600
_cell_length_c    7.03200
_cell_angle_alpha 90.00000
_cell_angle_beta  90.00000
_cell_angle_gamma 120.00000
 
_space_group_name_Hall 'P 1'
_space_group_name_H-M_alt  'P 1'
 
loop_
_symmetry_equiv_pos_as_xyz
 'x,y,z' 
 
loop_
_atom_site_label
_atom_site_type_symbol
_atom_site_fract_x
_atom_site_fract_y
_atom_site_fract_z
C          C       0.46951   0.44927   0.00000 
C          C       0.55073   0.02024   0.00000 
C          C       0.97976   0.53049   0.00000 
C          C       0.53049   0.55073   0.00000 
C          C       0.44927   0.97976   0.00000 
C          C       0.02024   0.46951   0.00000 
C          C       0.50030   0.48358   0.00000 
C          C       0.51642   0.01672   0.00000 
C          C       0.98328   0.49970   0.00000 
C          C       0.49970   0.51642   0.00000 
C          C       0.48358   0.98328   0.00000 
C          C       0.01672   0.50030   0.00000 
H          H       0.54246   0.60529   0.00000 
H          H       0.39471   0.93717   0.00000 
H          H       0.06283   0.45754   0.00000 
H          H       0.45754   0.39471   0.00000 
H          H       0.60529   0.06283   0.00000 
H          H       0.93717   0.54246   0.00000 
N          N       0.63070   0.31367   0.00000 
N          N       0.68633   0.31703   0.00000 
N          N       0.68297   0.36930   0.00000 
N          N       0.36930   0.68633   0.00000 
N          N       0.31367   0.68297   0.00000 
N          N       0.31703   0.63070   0.00000 
C          C       0.74234   0.37473   0.00000 
C          C       0.62527   0.36761   0.00000 
C          C       0.63239   0.25766   0.00000 
C          C       0.25766   0.62527   0.00000 
C          C       0.37473   0.63239   0.00000 
C          C       0.36761   0.74234   0.00000 
C          C       0.64979   0.29612   0.00000 
C          C       0.70388   0.35367   0.00000 
C          C       0.64633   0.35021   0.00000 
C          C       0.35021   0.70388   0.00000 
C          C       0.29612   0.64633   0.00000 
C          C       0.35367   0.64979   0.00000 
C          C       0.64151   0.40590   0.00000 
C          C       0.59410   0.23561   0.00000 
C          C       0.76439   0.35849   0.00000 
C          C       0.35849   0.59410   0.00000 
C          C       0.40590   0.76439   0.00000 
C          C       0.23561   0.64151   0.00000 
C          C       0.62047   0.42300   0.00000 
C          C       0.57700   0.19747   0.00000 
C          C       0.80253   0.37953   0.00000 
C          C       0.37953   0.57700   0.00000 
C          C       0.42300   0.80253   0.00000 
C          C       0.19747   0.62047   0.00000 
H          H       0.66907   0.42191   0.00000 
H          H       0.57809   0.24716   0.00000 
H          H       0.75284   0.33093   0.00000 
H          H       0.33093   0.57809   0.00000 
H          H       0.42191   0.75284   0.00000 
H          H       0.24716   0.66907   0.00000 
H          H       0.63302   0.45061   0.00000 
H          H       0.54939   0.18241   0.00000 
H          H       0.81759   0.36698   0.00000 
H          H       0.36698   0.54939   0.00000 
H          H       0.45061   0.81759   0.00000 
H          H       0.18241   0.63302   0.00000 
C          C       0.41314   0.65250   0.00000 
C          C       0.34750   0.76064   0.00000 
C          C       0.23936   0.58686   0.00000 
C          C       0.58686   0.34750   0.00000 
C          C       0.65250   0.23936   0.00000 
C          C       0.76064   0.41314   0.00000 
C          C       0.43407   0.63530   0.00000 
C          C       0.36470   0.79877   0.00000 
C          C       0.20123   0.56593   0.00000 
C          C       0.56593   0.36470   0.00000 
C          C       0.63530   0.20123   0.00000 
C          C       0.79877   0.43407   0.00000 
H          H       0.42641   0.68018   0.00000 
H          H       0.31982   0.74623   0.00000 
H          H       0.25377   0.57359   0.00000 
H          H       0.57359   0.31982   0.00000 
H          H       0.68018   0.25377   0.00000 
H          H       0.74623   0.42641   0.00000 
H          H       0.46150   0.65098   0.00000 
H          H       0.34902   0.81052   0.00000 
H          H       0.18948   0.53850   0.00000 
H          H       0.53850   0.34902   0.00000 
H          H       0.65098   0.18948   0.00000 
H          H       0.81052   0.46150   0.00000 
C          C       0.58242   0.40281   0.00000 
C          C       0.59719   0.17961   0.00000 
C          C       0.82039   0.41758   0.00000 
C          C       0.41758   0.59719   0.00000 
C          C       0.40281   0.82039   0.00000 
C          C       0.17961   0.58242   0.00000 
S          S       0.46029   0.51948   0.00000 
S          S       0.48052   0.94081   0.00000 
S          S       0.05919   0.53971   0.00000 
S          S       0.53971   0.48052   0.00000 
S          S       0.51948   0.05919   0.00000 
S          S       0.94081   0.46029   0.00000 
C          C       0.47141   0.58996   0.00000 
C          C       0.41004   0.88145   0.00000 
C          C       0.11855   0.52859   0.00000 
C          C       0.52859   0.41004   0.00000 
C          C       0.58996   0.11855   0.00000 
C          C       0.88145   0.47141   0.00000 
C          C       0.47728   0.42136   0.00000 
C          C       0.57864   0.05592   0.00000 
C          C       0.94408   0.52272   0.00000 
C          C       0.52272   0.57864   0.00000 
C          C       0.42136   0.94408   0.00000 
C          C       0.05592   0.47728   0.00000 
C          C       0.48570   0.56652   0.00000 
C          C       0.43348   0.91918   0.00000 
C          C       0.08082   0.51430   0.00000 
C          C       0.51430   0.43348   0.00000 
C          C       0.56652   0.08082   0.00000 
C          C       0.91918   0.48570   0.00000 
N          N       0.56447   0.42167   0.00000 
N          N       0.57833   0.14280   0.00000 
N          N       0.85720   0.43553   0.00000 
N          N       0.43553   0.57833   0.00000 
N          N       0.42167   0.85720   0.00000 
N          N       0.14280   0.56447   0.00000 
H          H       0.55642   0.55540   0.00000 
H          H       0.44460   0.00102   0.00000 
H          H       0.99898   0.44358   0.00000 
H          H       0.44358   0.44460   0.00000 
H          H       0.55540   0.99898   0.00000 
H          H       0.00102   0.55642   0.00000 
H          H       0.48939   0.61712   0.00000 
H          H       0.38288   0.87227   0.00000 
H          H       0.12773   0.51061   0.00000 
H          H       0.51061   0.38288   0.00000 
H          H       0.61712   0.12773   0.00000 
H          H       0.87227   0.48939   0.00000 
C          C       0.46951   0.44927   0.50000 
C          C       0.55073   0.02024   0.50000 
C          C       0.97976   0.53049   0.50000 
C          C       0.53049   0.55073   0.50000 
C          C       0.44927   0.97976   0.50000 
C          C       0.02024   0.46951   0.50000 
C          C       0.50030   0.48358   0.50000 
C          C       0.51642   0.01672   0.50000 
C          C       0.98328   0.49970   0.50000 
C          C       0.49970   0.51642   0.50000 
C          C       0.48358   0.98328   0.50000 
C          C       0.01672   0.50030   0.50000 
H          H       0.54246   0.60529   0.50000 
H          H       0.39471   0.93717   0.50000 
H          H       0.06283   0.45754   0.50000 
H          H       0.45754   0.39471   0.50000 
H          H       0.60529   0.06283   0.50000 
H          H       0.93717   0.54246   0.50000 
N          N       0.63070   0.31367   0.50000 
N          N       0.68633   0.31703   0.50000 
N          N       0.68297   0.36930   0.50000 
N          N       0.36930   0.68633   0.50000 
N          N       0.31367   0.68297   0.50000 
N          N       0.31703   0.63070   0.50000 
C          C       0.74234   0.37473   0.50000 
C          C       0.62527   0.36761   0.50000 
C          C       0.63239   0.25766   0.50000 
C          C       0.25766   0.62527   0.50000 
C          C       0.37473   0.63239   0.50000 
C          C       0.36761   0.74234   0.50000 
C          C       0.64979   0.29612   0.50000 
C          C       0.70388   0.35367   0.50000 
C          C       0.64633   0.35021   0.50000 
C          C       0.35021   0.70388   0.50000 
C          C       0.29612   0.64633   0.50000 
C          C       0.35367   0.64979   0.50000 
C          C       0.64151   0.40590   0.50000 
C          C       0.59410   0.23561   0.50000 
C          C       0.76439   0.35849   0.50000 
C          C       0.35849   0.59410   0.50000 
C          C       0.40590   0.76439   0.50000 
C          C       0.23561   0.64151   0.50000 
C          C       0.62047   0.42300   0.50000 
C          C       0.57700   0.19747   0.50000 
C          C       0.80253   0.37953   0.50000 
C          C       0.37953   0.57700   0.50000 
C          C       0.42300   0.80253   0.50000 
C          C       0.19747   0.62047   0.50000 
H          H       0.66907   0.42191   0.50000 
H          H       0.57809   0.24716   0.50000 
H          H       0.75284   0.33093   0.50000 
H          H       0.33093   0.57809   0.50000 
H          H       0.42191   0.75284   0.50000 
H          H       0.24716   0.66907   0.50000 
H          H       0.63302   0.45061   0.50000 
H          H       0.54939   0.18241   0.50000 
H          H       0.81759   0.36698   0.50000 
H          H       0.36698   0.54939   0.50000 
H          H       0.45061   0.81759   0.50000 
H          H       0.18241   0.63302   0.50000 
C          C       0.41314   0.65250   0.50000 
C          C       0.34750   0.76064   0.50000 
C          C       0.23936   0.58686   0.50000 
C          C       0.58686   0.34750   0.50000 
C          C       0.65250   0.23936   0.50000 
C          C       0.76064   0.41314   0.50000 
C          C       0.43407   0.63530   0.50000 
C          C       0.36470   0.79877   0.50000 
C          C       0.20123   0.56593   0.50000 
C          C       0.56593   0.36470   0.50000 
C          C       0.63530   0.20123   0.50000 
C          C       0.79877   0.43407   0.50000 
H          H       0.42641   0.68018   0.50000 
H          H       0.31982   0.74623   0.50000 
H          H       0.25377   0.57359   0.50000 
H          H       0.57359   0.31982   0.50000 
H          H       0.68018   0.25377   0.50000 
H          H       0.74623   0.42641   0.50000 
H          H       0.46150   0.65098   0.50000 
H          H       0.34902   0.81052   0.50000 
H          H       0.18948   0.53850   0.50000 
H          H       0.53850   0.34902   0.50000 
H          H       0.65098   0.18948   0.50000 
H          H       0.81052   0.46150   0.50000 
C          C       0.58242   0.40281   0.50000 
C          C       0.59719   0.17961   0.50000 
C          C       0.82039   0.41758   0.50000 
C          C       0.41758   0.59719   0.50000 
C          C       0.40281   0.82039   0.50000 
C          C       0.17961   0.58242   0.50000 
S          S       0.46029   0.51948   0.50000 
S          S       0.48052   0.94081   0.50000 
S          S       0.05919   0.53971   0.50000 
S          S       0.53971   0.48052   0.50000 
S          S       0.51948   0.05919   0.50000 
S          S       0.94081   0.46029   0.50000 
C          C       0.47141   0.58996   0.50000 
C          C       0.41004   0.88145   0.50000 
C          C       0.11855   0.52859   0.50000 
C          C       0.52859   0.41004   0.50000 
C          C       0.58996   0.11855   0.50000 
C          C       0.88145   0.47141   0.50000 
C          C       0.47728   0.42136   0.50000 
C          C       0.57864   0.05592   0.50000 
C          C       0.94408   0.52272   0.50000 
C          C       0.52272   0.57864   0.50000 
C          C       0.42136   0.94408   0.50000 
C          C       0.05592   0.47728   0.50000 
C          C       0.48570   0.56652   0.50000 
C          C       0.43348   0.91918   0.50000 
C          C       0.08082   0.51430   0.50000 
C          C       0.51430   0.43348   0.50000 
C          C       0.56652   0.08082   0.50000 
C          C       0.91918   0.48570   0.50000 
N          N       0.56447   0.42167   0.50000 
N          N       0.57833   0.14280   0.50000 
N          N       0.85720   0.43553   0.50000 
N          N       0.43553   0.57833   0.50000 
N          N       0.42167   0.85720   0.50000 
N          N       0.14280   0.56447   0.50000 
H          H       0.55642   0.55540   0.50000 
H          H       0.44460   0.00102   0.50000 
H          H       0.99898   0.44358   0.50000 
H          H       0.44358   0.44460   0.50000 
H          H       0.55540   0.99898   0.50000 
H          H       0.00102   0.55642   0.50000 
H          H       0.48939   0.61712   0.50000 
H          H       0.38288   0.87227   0.50000 
H          H       0.12773   0.51061   0.50000 
H          H       0.51061   0.38288   0.50000 
H          H       0.61712   0.12773   0.50000 
H          H       0.87227   0.48939   0.50000 
