data_crystal
 
_cell_length_a    46.26200
_cell_length_b    46.26200
_cell_length_c    7.09400
_cell_angle_alpha 90.00000
_cell_angle_beta  90.00000
_cell_angle_gamma 120.00000
 
_symmetry_space_group_name_Hall 'P 1'
_symmetry_space_group_name_H-M  'P 1'
 
loop_
_symmetry_equiv_pos_as_xyz
 'x,y,z' 
 
loop_
_atom_site_label
_atom_site_type_symbol
_atom_site_fract_x
_atom_site_fract_y
_atom_site_fract_z
H          H       0.56921   0.54246   0.00000 
H          H       0.45754   0.02675   0.00000 
H          H       0.97325   0.43079   0.00000 
H          H       0.43079   0.45754   0.00000 
H          H       0.54246   0.97325   0.00000 
H          H       0.02675   0.56921   0.00000 
H          H       0.48315   0.46287   0.00000 
H          H       0.53713   0.02028   0.00000 
H          H       0.97972   0.51685   0.00000 
H          H       0.51685   0.53713   0.00000 
H          H       0.46287   0.97972   0.00000 
H          H       0.02028   0.48315   0.00000 
H          H       0.38320   0.46838   0.00000 
H          H       0.53162   0.91482   0.00000 
H          H       0.08518   0.61680   0.00000 
H          H       0.61680   0.53162   0.00000 
H          H       0.46838   0.08518   0.00000 
H          H       0.91482   0.38320   0.00000 
H          H       0.37084   0.51702   0.00000 
H          H       0.48298   0.85382   0.00000 
H          H       0.14618   0.62916   0.00000 
H          H       0.62916   0.48298   0.00000 
H          H       0.51702   0.14618   0.00000 
H          H       0.85382   0.37084   0.00000 
H          H       0.43713   0.63033   0.00000 
H          H       0.36967   0.80680   0.00000 
H          H       0.19320   0.56287   0.00000 
H          H       0.56287   0.36967   0.00000 
H          H       0.63033   0.19320   0.00000 
H          H       0.80680   0.43713   0.00000 
H          H       0.41287   0.66514   0.00000 
H          H       0.33486   0.74773   0.00000 
H          H       0.25227   0.58713   0.00000 
H          H       0.58713   0.33486   0.00000 
H          H       0.66514   0.25227   0.00000 
H          H       0.74773   0.41287   0.00000 
H          H       0.31660   0.57932   0.00000 
H          H       0.42068   0.73728   0.00000 
H          H       0.26272   0.68340   0.00000 
H          H       0.68340   0.42068   0.00000 
H          H       0.57932   0.26272   0.00000 
H          H       0.73728   0.31660   0.00000 
H          H       0.34108   0.54493   0.00000 
H          H       0.45507   0.79615   0.00000 
H          H       0.20385   0.65892   0.00000 
H          H       0.65892   0.45507   0.00000 
H          H       0.54493   0.20385   0.00000 
H          H       0.79615   0.34108   0.00000 
C          C       0.65248   0.35342   0.00000 
C          C       0.64658   0.29906   0.00000 
C          C       0.70094   0.34752   0.00000 
C          C       0.34752   0.64658   0.00000 
C          C       0.35342   0.70094   0.00000 
C          C       0.29906   0.65248   0.00000 
N          N       0.63344   0.31958   0.00000 
N          N       0.68042   0.31386   0.00000 
N          N       0.68614   0.36656   0.00000 
N          N       0.36656   0.68042   0.00000 
N          N       0.31958   0.68614   0.00000 
N          N       0.31386   0.63344   0.00000 
C          C       0.62599   0.26392   0.00000 
C          C       0.73608   0.36207   0.00000 
C          C       0.63793   0.37401   0.00000 
C          C       0.37401   0.73608   0.00000 
C          C       0.26392   0.63793   0.00000 
C          C       0.36207   0.62599   0.00000 
C          C       0.75735   0.39720   0.00000 
C          C       0.60280   0.36015   0.00000 
C          C       0.63985   0.24265   0.00000 
C          C       0.24265   0.60280   0.00000 
C          C       0.39720   0.63985   0.00000 
C          C       0.36015   0.75735   0.00000 
C          C       0.79228   0.41165   0.00000 
C          C       0.58835   0.38063   0.00000 
C          C       0.61937   0.20772   0.00000 
C          C       0.20772   0.58835   0.00000 
C          C       0.41165   0.61937   0.00000 
C          C       0.38063   0.79228   0.00000 
C          C       0.80722   0.39156   0.00000 
C          C       0.60844   0.41566   0.00000 
C          C       0.58434   0.19278   0.00000 
C          C       0.19278   0.60844   0.00000 
C          C       0.39156   0.58434   0.00000 
C          C       0.41566   0.80722   0.00000 
C          C       0.78632   0.35652   0.00000 
C          C       0.64348   0.42980   0.00000 
C          C       0.57020   0.21368   0.00000 
C          C       0.21368   0.64348   0.00000 
C          C       0.35652   0.57020   0.00000 
C          C       0.42980   0.78632   0.00000 
C          C       0.75138   0.34209   0.00000 
C          C       0.65791   0.40929   0.00000 
C          C       0.59071   0.24862   0.00000 
C          C       0.24862   0.65791   0.00000 
C          C       0.34209   0.59071   0.00000 
C          C       0.40929   0.75138   0.00000 
N          N       0.84102   0.40771   0.00000 
N          N       0.59229   0.43331   0.00000 
N          N       0.56669   0.15898   0.00000 
N          N       0.15898   0.59229   0.00000 
N          N       0.40771   0.56669   0.00000 
N          N       0.43331   0.84102   0.00000 
C          C       0.86251   0.39595   0.00000 
C          C       0.60405   0.46656   0.00000 
C          C       0.53344   0.13749   0.00000 
C          C       0.13749   0.60405   0.00000 
C          C       0.39595   0.53344   0.00000 
C          C       0.46656   0.86251   0.00000 
C          C       0.89704   0.41797   0.00000 
C          C       0.58203   0.47907   0.00000 
C          C       0.52093   0.10296   0.00000 
C          C       0.10296   0.58203   0.00000 
C          C       0.41797   0.52093   0.00000 
C          C       0.47907   0.89704   0.00000 
S          S       0.91524   0.46119   0.00000 
S          S       0.53881   0.45405   0.00000 
S          S       0.54595   0.08476   0.00000 
S          S       0.08476   0.53881   0.00000 
S          S       0.46119   0.54595   0.00000 
S          S       0.45405   0.91524   0.00000 
C          C       0.95465   0.46511   0.00000 
C          C       0.53489   0.48954   0.00000 
C          C       0.51046   0.04535   0.00000 
C          C       0.04535   0.53489   0.00000 
C          C       0.46511   0.51046   0.00000 
C          C       0.48954   0.95465   0.00000 
C          C       0.95307   0.43416   0.00000 
C          C       0.56584   0.51891   0.00000 
C          C       0.48109   0.04693   0.00000 
C          C       0.04693   0.56584   0.00000 
C          C       0.43416   0.48109   0.00000 
C          C       0.51891   0.95307   0.00000 
C          C       0.92059   0.40762   0.00000 
C          C       0.59238   0.51297   0.00000 
C          C       0.48703   0.07941   0.00000 
C          C       0.07941   0.59238   0.00000 
C          C       0.40762   0.48703   0.00000 
C          C       0.51297   0.92059   0.00000 
C          C       0.50310   0.48658   0.00000 
C          C       0.51342   0.01652   0.00000 
C          C       0.98348   0.49690   0.00000 
C          C       0.49690   0.51342   0.00000 
C          C       0.48658   0.98348   0.00000 
C          C       0.01652   0.50310   0.00000 
H          H       0.56921   0.54246   0.50000 
H          H       0.45754   0.02675   0.50000 
H          H       0.97325   0.43079   0.50000 
H          H       0.43079   0.45754   0.50000 
H          H       0.54246   0.97325   0.50000 
H          H       0.02675   0.56921   0.50000 
H          H       0.48315   0.46287   0.50000 
H          H       0.53713   0.02028   0.50000 
H          H       0.97972   0.51685   0.50000 
H          H       0.51685   0.53713   0.50000 
H          H       0.46287   0.97972   0.50000 
H          H       0.02028   0.48315   0.50000 
H          H       0.38320   0.46838   0.50000 
H          H       0.53162   0.91482   0.50000 
H          H       0.08518   0.61680   0.50000 
H          H       0.61680   0.53162   0.50000 
H          H       0.46838   0.08518   0.50000 
H          H       0.91482   0.38320   0.50000 
H          H       0.37084   0.51702   0.50000 
H          H       0.48298   0.85382   0.50000 
H          H       0.14618   0.62916   0.50000 
H          H       0.62916   0.48298   0.50000 
H          H       0.51702   0.14618   0.50000 
H          H       0.85382   0.37084   0.50000 
H          H       0.43713   0.63033   0.50000 
H          H       0.36967   0.80680   0.50000 
H          H       0.19320   0.56287   0.50000 
H          H       0.56287   0.36967   0.50000 
H          H       0.63033   0.19320   0.50000 
H          H       0.80680   0.43713   0.50000 
H          H       0.41287   0.66514   0.50000 
H          H       0.33486   0.74773   0.50000 
H          H       0.25227   0.58713   0.50000 
H          H       0.58713   0.33486   0.50000 
H          H       0.66514   0.25227   0.50000 
H          H       0.74773   0.41287   0.50000 
H          H       0.31660   0.57932   0.50000 
H          H       0.42068   0.73728   0.50000 
H          H       0.26272   0.68340   0.50000 
H          H       0.68340   0.42068   0.50000 
H          H       0.57932   0.26272   0.50000 
H          H       0.73728   0.31660   0.50000 
H          H       0.34108   0.54493   0.50000 
H          H       0.45507   0.79615   0.50000 
H          H       0.20385   0.65892   0.50000 
H          H       0.65892   0.45507   0.50000 
H          H       0.54493   0.20385   0.50000 
H          H       0.79615   0.34108   0.50000 
C          C       0.65248   0.35342   0.50000 
C          C       0.64658   0.29906   0.50000 
C          C       0.70094   0.34752   0.50000 
C          C       0.34752   0.64658   0.50000 
C          C       0.35342   0.70094   0.50000 
C          C       0.29906   0.65248   0.50000 
N          N       0.63344   0.31958   0.50000 
N          N       0.68042   0.31386   0.50000 
N          N       0.68614   0.36656   0.50000 
N          N       0.36656   0.68042   0.50000 
N          N       0.31958   0.68614   0.50000 
N          N       0.31386   0.63344   0.50000 
C          C       0.62599   0.26392   0.50000 
C          C       0.73608   0.36207   0.50000 
C          C       0.63793   0.37401   0.50000 
C          C       0.37401   0.73608   0.50000 
C          C       0.26392   0.63793   0.50000 
C          C       0.36207   0.62599   0.50000 
C          C       0.75735   0.39720   0.50000 
C          C       0.60280   0.36015   0.50000 
C          C       0.63985   0.24265   0.50000 
C          C       0.24265   0.60280   0.50000 
C          C       0.39720   0.63985   0.50000 
C          C       0.36015   0.75735   0.50000 
C          C       0.79228   0.41165   0.50000 
C          C       0.58835   0.38063   0.50000 
C          C       0.61937   0.20772   0.50000 
C          C       0.20772   0.58835   0.50000 
C          C       0.41165   0.61937   0.50000 
C          C       0.38063   0.79228   0.50000 
C          C       0.80722   0.39156   0.50000 
C          C       0.60844   0.41566   0.50000 
C          C       0.58434   0.19278   0.50000 
C          C       0.19278   0.60844   0.50000 
C          C       0.39156   0.58434   0.50000 
C          C       0.41566   0.80722   0.50000 
C          C       0.78632   0.35652   0.50000 
C          C       0.64348   0.42980   0.50000 
C          C       0.57020   0.21368   0.50000 
C          C       0.21368   0.64348   0.50000 
C          C       0.35652   0.57020   0.50000 
C          C       0.42980   0.78632   0.50000 
C          C       0.75138   0.34209   0.50000 
C          C       0.65791   0.40929   0.50000 
C          C       0.59071   0.24862   0.50000 
C          C       0.24862   0.65791   0.50000 
C          C       0.34209   0.59071   0.50000 
C          C       0.40929   0.75138   0.50000 
N          N       0.84102   0.40771   0.50000 
N          N       0.59229   0.43331   0.50000 
N          N       0.56669   0.15898   0.50000 
N          N       0.15898   0.59229   0.50000 
N          N       0.40771   0.56669   0.50000 
N          N       0.43331   0.84102   0.50000 
C          C       0.86251   0.39595   0.50000 
C          C       0.60405   0.46656   0.50000 
C          C       0.53344   0.13749   0.50000 
C          C       0.13749   0.60405   0.50000 
C          C       0.39595   0.53344   0.50000 
C          C       0.46656   0.86251   0.50000 
C          C       0.89704   0.41797   0.50000 
C          C       0.58203   0.47907   0.50000 
C          C       0.52093   0.10296   0.50000 
C          C       0.10296   0.58203   0.50000 
C          C       0.41797   0.52093   0.50000 
C          C       0.47907   0.89704   0.50000 
S          S       0.91524   0.46119   0.50000 
S          S       0.53881   0.45405   0.50000 
S          S       0.54595   0.08476   0.50000 
S          S       0.08476   0.53881   0.50000 
S          S       0.46119   0.54595   0.50000 
S          S       0.45405   0.91524   0.50000 
C          C       0.95465   0.46511   0.50000 
C          C       0.53489   0.48954   0.50000 
C          C       0.51046   0.04535   0.50000 
C          C       0.04535   0.53489   0.50000 
C          C       0.46511   0.51046   0.50000 
C          C       0.48954   0.95465   0.50000 
C          C       0.95307   0.43416   0.50000 
C          C       0.56584   0.51891   0.50000 
C          C       0.48109   0.04693   0.50000 
C          C       0.04693   0.56584   0.50000 
C          C       0.43416   0.48109   0.50000 
C          C       0.51891   0.95307   0.50000 
C          C       0.92059   0.40762   0.50000 
C          C       0.59238   0.51297   0.50000 
C          C       0.48703   0.07941   0.50000 
C          C       0.07941   0.59238   0.50000 
C          C       0.40762   0.48703   0.50000 
C          C       0.51297   0.92059   0.50000 
C          C       0.50310   0.48658   0.50000 
C          C       0.51342   0.01652   0.50000 
C          C       0.98348   0.49690   0.50000 
C          C       0.49690   0.51342   0.50000 
C          C       0.48658   0.98348   0.50000 
C          C       0.01652   0.50310   0.50000 
