data_crystal
 
_cell_length_a    30.30000
_cell_length_b    30.30000
_cell_length_c    6.80000
_cell_angle_alpha 90.00000
_cell_angle_beta  90.00000
_cell_angle_gamma 120.00000
 
_symmetry_space_group_name_Hall 'P 1'
_symmetry_space_group_name_H-M  'P 1'
 
loop_
_symmetry_equiv_pos_as_xyz
 'x,y,z' 
 
loop_
_atom_site_label
_atom_site_type_symbol
_atom_site_fract_x
_atom_site_fract_y
_atom_site_fract_z
N          N       0.58866   0.39626   0.25000 
N          N       0.60374   0.19240   0.25000 
N          N       0.80760   0.41134   0.25000 
N          N       0.41134   0.60374   0.25000 
N          N       0.39626   0.80760   0.25000 
N          N       0.19240   0.58866   0.25000 
C          C       0.58131   0.35032   0.25000 
C          C       0.64968   0.23099   0.25000 
C          C       0.76901   0.41869   0.25000 
C          C       0.41869   0.64968   0.25000 
C          C       0.35032   0.76901   0.25000 
C          C       0.23099   0.58131   0.25000 
C          C       0.61696   0.29228   0.25000 
C          C       0.70772   0.32468   0.25000 
C          C       0.67532   0.38304   0.25000 
C          C       0.38304   0.70772   0.25000 
C          C       0.29228   0.67532   0.25000 
C          C       0.32468   0.61696   0.25000 
C          C       0.62526   0.34201   0.25000 
C          C       0.65799   0.28325   0.25000 
C          C       0.71675   0.37474   0.25000 
C          C       0.37474   0.65799   0.25000 
C          C       0.34201   0.71675   0.25000 
C          C       0.28325   0.62526   0.25000 
C          C       0.55761   0.42007   0.25000 
C          C       0.57993   0.13754   0.25000 
C          C       0.86246   0.44239   0.25000 
C          C       0.44239   0.57993   0.25000 
C          C       0.42007   0.86246   0.25000 
C          C       0.13754   0.55761   0.25000 
C          C       0.50322   0.39692   0.25000 
C          C       0.60308   0.10630   0.25000 
C          C       0.89370   0.49678   0.25000 
C          C       0.49678   0.60308   0.25000 
C          C       0.39692   0.89370   0.25000 
C          C       0.10630   0.50322   0.25000 
C          C       0.48226   0.42958   0.25000 
C          C       0.57042   0.05268   0.25000 
C          C       0.94732   0.51774   0.25000 
C          C       0.51774   0.57042   0.25000 
C          C       0.42958   0.94732   0.25000 
C          C       0.05268   0.48226   0.25000 
C          C       0.51202   0.48319   0.25000 
C          C       0.51681   0.02883   0.25000 
C          C       0.97117   0.48798   0.25000 
C          C       0.48798   0.51681   0.25000 
C          C       0.48319   0.97117   0.25000 
C          C       0.02883   0.51202   0.25000 
C          C       0.56503   0.50389   0.25000 
C          C       0.49611   0.06114   0.25000 
C          C       0.93886   0.43497   0.25000 
C          C       0.43497   0.49611   0.25000 
C          C       0.50389   0.93886   0.25000 
C          C       0.06114   0.56503   0.25000 
C          C       0.58664   0.47300   0.25000 
C          C       0.52700   0.11364   0.25000 
C          C       0.88636   0.41336   0.25000 
C          C       0.41336   0.52700   0.25000 
C          C       0.47300   0.88636   0.25000 
C          C       0.11364   0.58664   0.25000 
C          C       0.46544   0.33978   0.25000 
C          C       0.66022   0.12566   0.25000 
C          C       0.87434   0.53456   0.25000 
C          C       0.53456   0.66022   0.25000 
C          C       0.33978   0.87434   0.25000 
C          C       0.12566   0.46544   0.25000 
H          H       0.68214   0.22483   0.25000 
H          H       0.77517   0.45731   0.25000 
H          H       0.54269   0.31786   0.25000 
H          H       0.31786   0.77517   0.25000 
H          H       0.22483   0.54269   0.25000 
H          H       0.45731   0.68214   0.25000 
H          H       0.58769   0.02863   0.25000 
H          H       0.97137   0.55906   0.25000 
H          H       0.44094   0.41231   0.25000 
H          H       0.41231   0.97137   0.25000 
H          H       0.02863   0.44094   0.25000 
H          H       0.55906   0.58769   0.25000 
H          H       0.45488   0.04460   0.25000 
H          H       0.95540   0.41028   0.25000 
H          H       0.58972   0.54512   0.25000 
H          H       0.54512   0.95540   0.25000 
H          H       0.04460   0.58972   0.25000 
H          H       0.41028   0.45488   0.25000 
H          H       0.50914   0.13716   0.25000 
H          H       0.86284   0.37198   0.25000 
H          H       0.62802   0.49086   0.25000 
H          H       0.49086   0.86284   0.25000 
H          H       0.13716   0.62802   0.25000 
H          H       0.37198   0.50914   0.25000 
H          H       0.67740   0.14871   0.38076 
H          H       0.85129   0.52869   0.38076 
H          H       0.47131   0.32260   0.38076 
H          H       0.32260   0.85129   0.38076 
H          H       0.14871   0.47131   0.38076 
H          H       0.52869   0.67740   0.38076 
H          H       0.32260   0.85129   0.11924 
H          H       0.14871   0.47131   0.11924 
H          H       0.52869   0.67740   0.11924 
H          H       0.67740   0.14871   0.11924 
H          H       0.85129   0.52869   0.11924 
H          H       0.47131   0.32260   0.11924 
H          H       0.66666   0.09338   0.25000 
H          H       0.90662   0.57328   0.25000 
H          H       0.42672   0.33334   0.25000 
H          H       0.33334   0.90662   0.25000 
H          H       0.09338   0.42672   0.25000 
H          H       0.57328   0.66666   0.25000 
H          H       0.73981   0.31794   0.25000 
H          H       0.68206   0.42187   0.25000 
H          H       0.57813   0.26019   0.25000 
H          H       0.26019   0.68206   0.25000 
H          H       0.31794   0.57813   0.25000 
H          H       0.42187   0.73981   0.25000 
N          N       0.58866   0.39626   0.75000 
N          N       0.60374   0.19240   0.75000 
N          N       0.80760   0.41134   0.75000 
N          N       0.41134   0.60374   0.75000 
N          N       0.39626   0.80760   0.75000 
N          N       0.19240   0.58866   0.75000 
C          C       0.58131   0.35032   0.75000 
C          C       0.64968   0.23099   0.75000 
C          C       0.76901   0.41869   0.75000 
C          C       0.41869   0.64968   0.75000 
C          C       0.35032   0.76901   0.75000 
C          C       0.23099   0.58131   0.75000 
C          C       0.61696   0.29228   0.75000 
C          C       0.70772   0.32468   0.75000 
C          C       0.67532   0.38304   0.75000 
C          C       0.38304   0.70772   0.75000 
C          C       0.29228   0.67532   0.75000 
C          C       0.32468   0.61696   0.75000 
C          C       0.62526   0.34201   0.75000 
C          C       0.65799   0.28325   0.75000 
C          C       0.71675   0.37474   0.75000 
C          C       0.37474   0.65799   0.75000 
C          C       0.34201   0.71675   0.75000 
C          C       0.28325   0.62526   0.75000 
C          C       0.55761   0.42007   0.75000 
C          C       0.57993   0.13754   0.75000 
C          C       0.86246   0.44239   0.75000 
C          C       0.44239   0.57993   0.75000 
C          C       0.42007   0.86246   0.75000 
C          C       0.13754   0.55761   0.75000 
C          C       0.50322   0.39692   0.75000 
C          C       0.60308   0.10630   0.75000 
C          C       0.89370   0.49678   0.75000 
C          C       0.49678   0.60308   0.75000 
C          C       0.39692   0.89370   0.75000 
C          C       0.10630   0.50322   0.75000 
C          C       0.48226   0.42958   0.75000 
C          C       0.57042   0.05268   0.75000 
C          C       0.94732   0.51774   0.75000 
C          C       0.51774   0.57042   0.75000 
C          C       0.42958   0.94732   0.75000 
C          C       0.05268   0.48226   0.75000 
C          C       0.51202   0.48319   0.75000 
C          C       0.51681   0.02883   0.75000 
C          C       0.97117   0.48798   0.75000 
C          C       0.48798   0.51681   0.75000 
C          C       0.48319   0.97117   0.75000 
C          C       0.02883   0.51202   0.75000 
C          C       0.56503   0.50389   0.75000 
C          C       0.49611   0.06114   0.75000 
C          C       0.93886   0.43497   0.75000 
C          C       0.43497   0.49611   0.75000 
C          C       0.50389   0.93886   0.75000 
C          C       0.06114   0.56503   0.75000 
C          C       0.58664   0.47300   0.75000 
C          C       0.52700   0.11364   0.75000 
C          C       0.88636   0.41336   0.75000 
C          C       0.41336   0.52700   0.75000 
C          C       0.47300   0.88636   0.75000 
C          C       0.11364   0.58664   0.75000 
C          C       0.46544   0.33978   0.75000 
C          C       0.66022   0.12566   0.75000 
C          C       0.87434   0.53456   0.75000 
C          C       0.53456   0.66022   0.75000 
C          C       0.33978   0.87434   0.75000 
C          C       0.12566   0.46544   0.75000 
H          H       0.68214   0.22483   0.75000 
H          H       0.77517   0.45731   0.75000 
H          H       0.54269   0.31786   0.75000 
H          H       0.31786   0.77517   0.75000 
H          H       0.22483   0.54269   0.75000 
H          H       0.45731   0.68214   0.75000 
H          H       0.58769   0.02863   0.75000 
H          H       0.97137   0.55906   0.75000 
H          H       0.44094   0.41231   0.75000 
H          H       0.41231   0.97137   0.75000 
H          H       0.02863   0.44094   0.75000 
H          H       0.55906   0.58769   0.75000 
H          H       0.45488   0.04460   0.75000 
H          H       0.95540   0.41028   0.75000 
H          H       0.58972   0.54512   0.75000 
H          H       0.54512   0.95540   0.75000 
H          H       0.04460   0.58972   0.75000 
H          H       0.41028   0.45488   0.75000 
H          H       0.50914   0.13716   0.75000 
H          H       0.86284   0.37198   0.75000 
H          H       0.62802   0.49086   0.75000 
H          H       0.49086   0.86284   0.75000 
H          H       0.13716   0.62802   0.75000 
H          H       0.37198   0.50914   0.75000 
H          H       0.67740   0.14871   0.88076 
H          H       0.85129   0.52869   0.88076 
H          H       0.47131   0.32260   0.88076 
H          H       0.32260   0.85129   0.88076 
H          H       0.14871   0.47131   0.88076 
H          H       0.52869   0.67740   0.88076 
H          H       0.32260   0.85129   0.61924 
H          H       0.14871   0.47131   0.61924 
H          H       0.52869   0.67740   0.61924 
H          H       0.67740   0.14871   0.61924 
H          H       0.85129   0.52869   0.61924 
H          H       0.47131   0.32260   0.61924 
H          H       0.66666   0.09338   0.75000 
H          H       0.90662   0.57328   0.75000 
H          H       0.42672   0.33334   0.75000 
H          H       0.33334   0.90662   0.75000 
H          H       0.09338   0.42672   0.75000 
H          H       0.57328   0.66666   0.75000 
H          H       0.73981   0.31794   0.75000 
H          H       0.68206   0.42187   0.75000 
H          H       0.57813   0.26019   0.75000 
H          H       0.26019   0.68206   0.75000 
H          H       0.31794   0.57813   0.75000 
H          H       0.42187   0.73981   0.75000 
