data_crystal
 
_cell_length_a    18.38000
_cell_length_b    17.56000
_cell_length_c    6.78000
_cell_angle_alpha 89.50000
_cell_angle_beta  90.38000
_cell_angle_gamma 119.91000
 
_symmetry_space_group_name_Hall 'P 1'
_symmetry_space_group_name_H-M  'P 1'
 
loop_
_symmetry_equiv_pos_as_xyz
 'x,y,z' 
 
loop_
_atom_site_label
_atom_site_type_symbol
_atom_site_fract_x
_atom_site_fract_y
_atom_site_fract_z
O          O       0.22808   0.53994   0.24139 
N          N       0.38116   0.56198   0.24125 
C          C       0.26054   0.61917   0.24133 
C          C       0.35200   0.67554   0.24122 
C          C       0.40577   0.64342   0.24119 
H          H       0.47850   0.69417   0.24111 
H          H       0.31050   0.51260   0.25133 
O          O       0.46921   0.81445   0.24105 
N          N       0.44977   0.94937   0.24105 
C          C       0.38998   0.76768   0.24113 
C          C       0.33361   0.80277   0.24116 
C          C       0.36574   0.88866   0.24110 
H          H       0.31354   0.90871   0.24108 
H          H       0.50051   0.93009   0.22615 
C          C       0.24148   0.74861   0.24127 
O          O       0.19470   0.78107   0.24130 
N          N       0.06366   0.62799   0.24149 
C          C       0.20639   0.65716   0.24135 
C          C       0.12049   0.60339   0.24145 
H          H       0.09852   0.53066   0.24152 
H          H       0.08436   0.69790   0.21708 
C          C       0.68640   0.34918   0.23638 
C          C       0.67353   0.46712   0.24468 
C          C       0.72017   0.43167   0.24299 
C          C       0.55565   0.33617   0.24205 
C          C       0.60365   0.30251   0.24046 
C          C       0.59154   0.41867   0.24066 
C          C       0.80217   0.47890   0.24687 
C          C       0.84124   0.56468   0.25392 
C          C       0.92730   0.61243   0.26447 
C          C       0.97793   0.57680   0.26886 
C          C       0.93764   0.49050   0.26339 
C          C       0.85232   0.44118   0.24848 
C          C       0.56487   0.21305   0.24063 
C          C       0.47940   0.16273   0.24528 
C          C       0.44313   0.07679   0.25290 
C          C       0.49039   0.03747   0.25664 
C          C       0.57620   0.08898   0.25361 
C          C       0.61431   0.17456   0.24163 
C          C       0.53659   0.45580   0.24180 
C          C       0.44972   0.40529   0.23876 
C          C       0.39970   0.44169   0.23400 
C          C       0.57043   0.54236   0.23795 
C          C       0.51779   0.57578   0.23321 
C          C       0.43253   0.52655   0.23009 
H          H       0.41862   0.33102   0.24025 
H          H       0.32541   0.39869   0.23322 
H          H       0.64444   0.58745   0.23874 
H          H       0.54652   0.64976   0.23172 
H          H       0.80075   0.59869   0.25095 
H          H       0.96036   0.68683   0.27012 
H          H       0.97717   0.45557   0.27175 
H          H       0.82062   0.36702   0.23694 
H          H       0.43567   0.19320   0.24274 
H          H       0.36885   0.03388   0.25649 
H          H       0.62073   0.05950   0.26156 
H          H       0.68860   0.21625   0.23214 
H          H       0.73021   0.31892   0.22703 
H          H       0.70563   0.54146   0.24973 
H          H       0.48144   0.29254   0.24469 
O          O       0.22808   0.53994   0.74140 
N          N       0.38116   0.56198   0.74125 
C          C       0.26054   0.61917   0.74133 
C          C       0.35200   0.67554   0.74122 
C          C       0.40577   0.64342   0.74119 
H          H       0.47850   0.69417   0.74111 
H          H       0.31050   0.51260   0.75133 
O          O       0.46921   0.81445   0.74105 
N          N       0.44977   0.94937   0.74105 
C          C       0.38998   0.76768   0.74113 
C          C       0.33361   0.80277   0.74117 
C          C       0.36574   0.88866   0.74110 
H          H       0.31354   0.90871   0.74108 
H          H       0.50051   0.93009   0.72614 
C          C       0.24148   0.74861   0.74128 
O          O       0.19470   0.78107   0.74130 
N          N       0.06366   0.62799   0.74149 
C          C       0.20639   0.65716   0.74135 
C          C       0.12049   0.60339   0.74145 
H          H       0.09852   0.53066   0.74152 
H          H       0.08436   0.69790   0.71708 
C          C       0.68640   0.34918   0.73637 
C          C       0.67353   0.46712   0.74468 
C          C       0.72017   0.43167   0.74299 
C          C       0.55565   0.33617   0.74205 
C          C       0.60365   0.30251   0.74046 
C          C       0.59154   0.41867   0.74066 
C          C       0.80217   0.47890   0.74687 
C          C       0.84124   0.56468   0.75392 
C          C       0.92730   0.61243   0.76447 
C          C       0.97793   0.57680   0.76886 
C          C       0.93764   0.49050   0.76339 
C          C       0.85232   0.44118   0.74848 
C          C       0.56487   0.21305   0.74063 
C          C       0.47940   0.16273   0.74528 
C          C       0.44313   0.07679   0.75291 
C          C       0.49039   0.03747   0.75664 
C          C       0.57620   0.08898   0.75361 
C          C       0.61431   0.17456   0.74163 
C          C       0.53659   0.45580   0.74180 
C          C       0.44972   0.40529   0.73876 
C          C       0.39970   0.44169   0.73401 
C          C       0.57043   0.54236   0.73795 
C          C       0.51779   0.57578   0.73321 
C          C       0.43253   0.52655   0.73010 
H          H       0.41862   0.33102   0.74025 
H          H       0.32541   0.39869   0.73322 
H          H       0.64444   0.58745   0.73874 
H          H       0.54652   0.64976   0.73172 
H          H       0.80075   0.59869   0.75096 
H          H       0.96036   0.68683   0.77012 
H          H       0.97717   0.45557   0.77175 
H          H       0.82062   0.36702   0.73694 
H          H       0.43567   0.19320   0.74274 
H          H       0.36885   0.03388   0.75650 
H          H       0.62073   0.05950   0.76156 
H          H       0.68860   0.21625   0.73213 
H          H       0.73021   0.31892   0.72703 
H          H       0.70563   0.54146   0.74972 
H          H       0.48144   0.29254   0.74469 
