data_crystal
 
_cell_length_a    29.54000
_cell_length_b    29.54000
_cell_length_c    7.26000
_cell_angle_alpha 90.00000
_cell_angle_beta  90.00000
_cell_angle_gamma 120.00000
 
_symmetry_space_group_name_Hall 'P 1'
_symmetry_space_group_name_H-M  'P 1'
 
loop_
_symmetry_equiv_pos_as_xyz
 'x,y,z' 
 
loop_
_atom_site_label
_atom_site_type_symbol
_atom_site_fract_x
_atom_site_fract_y
_atom_site_fract_z
C          C       0.68317   0.38629   0.00000 
C          C       0.61371   0.29688   0.00000 
C          C       0.70312   0.31683   0.00000 
C          C       0.31683   0.61371   0.00000 
C          C       0.38629   0.70312   0.00000 
C          C       0.29688   0.68317   0.00000 
C          C       0.62934   0.35020   0.00000 
C          C       0.64980   0.27914   0.00000 
C          C       0.72086   0.37066   0.00000 
C          C       0.37066   0.64980   0.00000 
C          C       0.35020   0.72086   0.00000 
C          C       0.27914   0.62934   0.00000 
C          C       0.59309   0.36240   0.00000 
C          C       0.63760   0.23069   0.00000 
C          C       0.76931   0.40691   0.00000 
C          C       0.40691   0.63760   0.00000 
C          C       0.36240   0.76931   0.00000 
C          C       0.23069   0.59309   0.00000 
N          N       0.60004   0.41163   0.00000 
N          N       0.58837   0.18841   0.00000 
N          N       0.81159   0.39996   0.00000 
N          N       0.39996   0.58837   0.00000 
N          N       0.41163   0.81159   0.00000 
N          N       0.18841   0.60004   0.00000 
C          C       0.56079   0.42318   0.00000 
C          C       0.57682   0.13761   0.00000 
C          C       0.86239   0.43921   0.00000 
C          C       0.43921   0.57682   0.00000 
C          C       0.42318   0.86239   0.00000 
C          C       0.13761   0.56079   0.00000 
C          C       0.51053   0.38683   0.00000 
C          C       0.61317   0.12370   0.00000 
C          C       0.87630   0.48947   0.00000 
C          C       0.48947   0.61317   0.00000 
C          C       0.38683   0.87630   0.00000 
C          C       0.12370   0.51053   0.00000 
C          C       0.44994   0.46320   0.00000 
C          C       0.53680   0.98674   0.00000 
C          C       0.01326   0.55006   0.00000 
C          C       0.55006   0.53680   0.00000 
C          C       0.46320   0.01326   0.00000 
C          C       0.98674   0.44994   0.00000 
C          C       0.48670   0.44984   0.00000 
C          C       0.55016   0.03686   0.00000 
C          C       0.96314   0.51330   0.00000 
C          C       0.51330   0.55016   0.00000 
C          C       0.44984   0.96314   0.00000 
C          C       0.03686   0.48670   0.00000 
C          C       0.53695   0.48675   0.00000 
C          C       0.51325   0.05020   0.00000 
C          C       0.94980   0.46305   0.00000 
C          C       0.46305   0.51325   0.00000 
C          C       0.48675   0.94980   0.00000 
C          C       0.05020   0.53695   0.00000 
C          C       0.47409   0.40005   0.00000 
C          C       0.59995   0.07404   0.00000 
C          C       0.92596   0.52591   0.00000 
C          C       0.52591   0.59995   0.00000 
C          C       0.40005   0.92596   0.00000 
C          C       0.07404   0.47409   0.00000 
C          C       0.57332   0.47290   0.00000 
C          C       0.52710   0.10042   0.00000 
C          C       0.89958   0.42668   0.00000 
C          C       0.42668   0.52710   0.00000 
C          C       0.47290   0.89958   0.00000 
C          C       0.10042   0.57332   0.00000 
O          O       0.40658   0.43128   0.00000 
O          O       0.56872   0.97530   0.00000 
O          O       0.02470   0.59342   0.00000 
O          O       0.59342   0.56872   0.00000 
O          O       0.43128   0.02470   0.00000 
O          O       0.97530   0.40658   0.00000 
O          O       0.69760   0.43014   0.00000 
O          O       0.56986   0.26746   0.00000 
O          O       0.73254   0.30240   0.00000 
O          O       0.30240   0.56986   0.00000 
O          O       0.43014   0.73254   0.00000 
O          O       0.26746   0.69760   0.00000 
H          H       0.55564   0.33232   0.00000 
H          H       0.66768   0.22332   0.00000 
H          H       0.77668   0.44436   0.00000 
H          H       0.44436   0.66768   0.00000 
H          H       0.33232   0.77668   0.00000 
H          H       0.22332   0.55564   0.00000 
H          H       0.49823   0.34804   0.00000 
H          H       0.65196   0.15019   0.00000 
H          H       0.84981   0.50177   0.00000 
H          H       0.50177   0.65196   0.00000 
H          H       0.34804   0.84981   0.00000 
H          H       0.15019   0.49823   0.00000 
H          H       0.43561   0.37126   0.00000 
H          H       0.62874   0.06435   0.00000 
H          H       0.93565   0.56439   0.00000 
H          H       0.56439   0.62874   0.00000 
H          H       0.37126   0.93565   0.00000 
H          H       0.06435   0.43561   0.00000 
H          H       0.61190   0.50121   0.00000 
H          H       0.49879   0.11069   0.00000 
H          H       0.88931   0.38810   0.00000 
H          H       0.38810   0.49879   0.00000 
H          H       0.50121   0.88931   0.00000 
H          H       0.11069   0.61190   0.00000 
H          H       0.63518   0.44226   0.00000 
H          H       0.55774   0.19292   0.00000 
H          H       0.80708   0.36482   0.00000 
H          H       0.36482   0.55774   0.00000 
H          H       0.44226   0.80708   0.00000 
H          H       0.19292   0.63518   0.00000 
C          C       0.68317   0.38629   0.50000 
C          C       0.61371   0.29688   0.50000 
C          C       0.70312   0.31683   0.50000 
C          C       0.31683   0.61371   0.50000 
C          C       0.38629   0.70312   0.50000 
C          C       0.29688   0.68317   0.50000 
C          C       0.62934   0.35020   0.50000 
C          C       0.64980   0.27914   0.50000 
C          C       0.72086   0.37066   0.50000 
C          C       0.37066   0.64980   0.50000 
C          C       0.35020   0.72086   0.50000 
C          C       0.27914   0.62934   0.50000 
C          C       0.59309   0.36240   0.50000 
C          C       0.63760   0.23069   0.50000 
C          C       0.76931   0.40691   0.50000 
C          C       0.40691   0.63760   0.50000 
C          C       0.36240   0.76931   0.50000 
C          C       0.23069   0.59309   0.50000 
N          N       0.60004   0.41163   0.50000 
N          N       0.58837   0.18841   0.50000 
N          N       0.81159   0.39996   0.50000 
N          N       0.39996   0.58837   0.50000 
N          N       0.41163   0.81159   0.50000 
N          N       0.18841   0.60004   0.50000 
C          C       0.56079   0.42318   0.50000 
C          C       0.57682   0.13761   0.50000 
C          C       0.86239   0.43921   0.50000 
C          C       0.43921   0.57682   0.50000 
C          C       0.42318   0.86239   0.50000 
C          C       0.13761   0.56079   0.50000 
C          C       0.51053   0.38683   0.50000 
C          C       0.61317   0.12370   0.50000 
C          C       0.87630   0.48947   0.50000 
C          C       0.48947   0.61317   0.50000 
C          C       0.38683   0.87630   0.50000 
C          C       0.12370   0.51053   0.50000 
C          C       0.44994   0.46320   0.50000 
C          C       0.53680   0.98674   0.50000 
C          C       0.01326   0.55006   0.50000 
C          C       0.55006   0.53680   0.50000 
C          C       0.46320   0.01326   0.50000 
C          C       0.98674   0.44994   0.50000 
C          C       0.48670   0.44984   0.50000 
C          C       0.55016   0.03686   0.50000 
C          C       0.96314   0.51330   0.50000 
C          C       0.51330   0.55016   0.50000 
C          C       0.44984   0.96314   0.50000 
C          C       0.03686   0.48670   0.50000 
C          C       0.53695   0.48675   0.50000 
C          C       0.51325   0.05020   0.50000 
C          C       0.94980   0.46305   0.50000 
C          C       0.46305   0.51325   0.50000 
C          C       0.48675   0.94980   0.50000 
C          C       0.05020   0.53695   0.50000 
C          C       0.47409   0.40005   0.50000 
C          C       0.59995   0.07404   0.50000 
C          C       0.92596   0.52591   0.50000 
C          C       0.52591   0.59995   0.50000 
C          C       0.40005   0.92596   0.50000 
C          C       0.07404   0.47409   0.50000 
C          C       0.57332   0.47290   0.50000 
C          C       0.52710   0.10042   0.50000 
C          C       0.89958   0.42668   0.50000 
C          C       0.42668   0.52710   0.50000 
C          C       0.47290   0.89958   0.50000 
C          C       0.10042   0.57332   0.50000 
O          O       0.40658   0.43128   0.50000 
O          O       0.56872   0.97530   0.50000 
O          O       0.02470   0.59342   0.50000 
O          O       0.59342   0.56872   0.50000 
O          O       0.43128   0.02470   0.50000 
O          O       0.97530   0.40658   0.50000 
O          O       0.69760   0.43014   0.50000 
O          O       0.56986   0.26746   0.50000 
O          O       0.73254   0.30240   0.50000 
O          O       0.30240   0.56986   0.50000 
O          O       0.43014   0.73254   0.50000 
O          O       0.26746   0.69760   0.50000 
H          H       0.55564   0.33232   0.50000 
H          H       0.66768   0.22332   0.50000 
H          H       0.77668   0.44436   0.50000 
H          H       0.44436   0.66768   0.50000 
H          H       0.33232   0.77668   0.50000 
H          H       0.22332   0.55564   0.50000 
H          H       0.49823   0.34804   0.50000 
H          H       0.65196   0.15019   0.50000 
H          H       0.84981   0.50177   0.50000 
H          H       0.50177   0.65196   0.50000 
H          H       0.34804   0.84981   0.50000 
H          H       0.15019   0.49823   0.50000 
H          H       0.43561   0.37126   0.50000 
H          H       0.62874   0.06435   0.50000 
H          H       0.93565   0.56439   0.50000 
H          H       0.56439   0.62874   0.50000 
H          H       0.37126   0.93565   0.50000 
H          H       0.06435   0.43561   0.50000 
H          H       0.61190   0.50121   0.50000 
H          H       0.49879   0.11069   0.50000 
H          H       0.88931   0.38810   0.50000 
H          H       0.38810   0.49879   0.50000 
H          H       0.50121   0.88931   0.50000 
H          H       0.11069   0.61190   0.50000 
H          H       0.63518   0.44226   0.50000 
H          H       0.55774   0.19292   0.50000 
H          H       0.80708   0.36482   0.50000 
H          H       0.36482   0.55774   0.50000 
H          H       0.44226   0.80708   0.50000 
H          H       0.19292   0.63518   0.50000 
