data_crystal
 
_cell_length_a    44.94000
_cell_length_b    44.94000
_cell_length_c    4.48000
_cell_angle_alpha 90.00000
_cell_angle_beta  90.00000
_cell_angle_gamma 120.00000
 
_space_group_name_Hall 'P 1'
_space_group_name_H-M_alt  'P 1'
 
loop_
_symmetry_equiv_pos_as_xyz
 'x,y,z' 
 
loop_
_atom_site_label
_atom_site_type_symbol
_atom_site_fract_x
_atom_site_fract_y
_atom_site_fract_z
C          C       0.79220   0.15874   0.94378 
C          C       0.84126   0.63346   0.94378 
C          C       0.36654   0.20780   0.94378 
C          C       0.78128   0.12517   0.05824 
C          C       0.87483   0.65611   0.05824 
C          C       0.34389   0.21872   0.05824 
C          C       0.80536   0.11402   0.07958 
C          C       0.88598   0.69134   0.07958 
C          C       0.30866   0.19464   0.07958 
C          C       0.83980   0.13526   0.99140 
C          C       0.86474   0.70454   0.99140 
C          C       0.29546   0.16020   0.99140 
C          C       0.85070   0.16882   0.87656 
C          C       0.83118   0.68188   0.87656 
C          C       0.31812   0.14930   0.87656 
C          C       0.82662   0.17995   0.85534 
C          C       0.82005   0.64667   0.85534 
C          C       0.35333   0.17338   0.85534 
C          C       0.86350   0.12154   0.02486 
C          C       0.87846   0.74196   0.02486 
C          C       0.25804   0.13650   0.02486 
C          C       0.76856   0.17255   0.91102 
C          C       0.82745   0.59601   0.91102 
C          C       0.40399   0.23144   0.91102 
N          N       0.84993   0.08600   0.10913 
N          N       0.91400   0.76393   0.10913 
N          N       0.23607   0.15007   0.10913 
O          O       0.73787   0.15433   0.96061 
O          O       0.84567   0.58354   0.96061 
O          O       0.41646   0.26213   0.96061 
N          N       0.78182   0.20770   0.82153 
N          N       0.79230   0.57412   0.82153 
N          N       0.42588   0.21818   0.82153 
O          O       0.89422   0.14017   0.98092 
O          O       0.85983   0.75405   0.98092 
O          O       0.24595   0.10578   0.98092 
C          C       0.90260   0.08596   0.15790 
C          C       0.91404   0.81664   0.15790 
C          C       0.18336   0.09740   0.15790 
N          N       0.86937   0.06966   0.15486 
N          N       0.93034   0.79971   0.15486 
N          N       0.20029   0.13063   0.15486 
N          N       0.76021   0.22160   0.79394 
N          N       0.77840   0.53861   0.79394 
N          N       0.46139   0.23979   0.79394 
C          C       0.77292   0.25379   0.72704 
C          C       0.74621   0.51913   0.72704 
C          C       0.48087   0.22708   0.72704 
C          C       0.92189   0.06791   0.19740 
C          C       0.93209   0.85398   0.19740 
C          C       0.14602   0.07811   0.19740 
C          C       0.75096   0.26913   0.69969 
C          C       0.73087   0.48183   0.69969 
C          C       0.51817   0.24904   0.69969 
C          C       0.95767   0.08691   0.20034 
C          C       0.91309   0.87076   0.20034 
C          C       0.12924   0.04233   0.20034 
C          C       0.97679   0.07032   0.22610 
C          C       0.92968   0.90647   0.22610 
C          C       0.09353   0.02321   0.22610 
C          C       0.96034   0.03442   0.24898 
C          C       0.96558   0.92592   0.24898 
C          C       0.07408   0.03966   0.24898 
C          C       0.92433   0.01548   0.24822 
C          C       0.98452   0.90885   0.24822 
C          C       0.09115   0.07567   0.24822 
C          C       0.90521   0.03209   0.22272 
C          C       0.96791   0.87312   0.22272 
C          C       0.12688   0.09479   0.22272 
C          C       0.76614   0.30453   0.65212 
C          C       0.69547   0.46161   0.65212 
C          C       0.53839   0.23386   0.65212 
C          C       0.74581   0.31988   0.63386 
C          C       0.68012   0.42593   0.63386 
C          C       0.57407   0.25419   0.63386 
C          C       0.70996   0.30001   0.66187 
C          C       0.69999   0.40995   0.66187 
C          C       0.59005   0.29004   0.66187 
C          C       0.69488   0.26442   0.70709 
C          C       0.73558   0.43046   0.70709 
C          C       0.56954   0.30512   0.70709 
C          C       0.71521   0.24908   0.72636 
C          C       0.75092   0.46613   0.72636 
C          C       0.53387   0.28479   0.72636 
C          C       0.98065   0.01679   0.26287 
C          C       0.98321   0.96386   0.26287 
C          C       0.03614   0.01935   0.26287 
C          C       0.68848   0.31638   0.65169 
C          C       0.68362   0.37210   0.65169 
C          C       0.62790   0.31152   0.65169 
C          C       0.01660   0.03573   0.26247 
C          C       0.96427   0.98087   0.26247 
C          C       0.01913   0.98340   0.26247 
C          C       0.65259   0.29633   0.65199 
C          C       0.70367   0.35626   0.65199 
C          C       0.64374   0.34741   0.65199 
O          O       0.88471   0.18968   0.76764 
O          O       0.81032   0.69503   0.76764 
O          O       0.30497   0.11529   0.76764 
C          C       0.89581   0.22525   0.73482 
C          C       0.77475   0.67056   0.73482 
C          C       0.32944   0.10419   0.73482 
C          C       0.93119   0.24443   0.57540 
C          C       0.75557   0.68676   0.57540 
C          C       0.31324   0.06881   0.57540 
C          C       0.94191   0.28217   0.55312 
C          C       0.71783   0.65974   0.55312 
C          C       0.34026   0.05809   0.55312 
O          O       0.97345   0.30046   0.39022 
O          O       0.69954   0.67299   0.39022 
O          O       0.32701   0.02655   0.39022 
C          C       0.97688   0.33244   0.32255 
C          C       0.66756   0.64444   0.32255 
C          C       0.35556   0.02312   0.32255 
O          O       0.74655   0.10336   0.13865 
O          O       0.89664   0.64319   0.13865 
O          O       0.35681   0.25345   0.13865 
C          C       0.73842   0.07206   0.30212 
C          C       0.92794   0.66636   0.30212 
C          C       0.33364   0.26158   0.30212 
C          C       0.69978   0.04898   0.31858 
C          C       0.95102   0.65080   0.31858 
C          C       0.34920   0.30022   0.31858 
C          C       0.69123   0.01493   0.47611 
C          C       0.98507   0.67630   0.47611 
C          C       0.32370   0.30877   0.47611 
O          O       0.65863   0.98955   0.37335 
O          O       0.01045   0.66908   0.37335 
O          O       0.33092   0.34137   0.37335 
C          C       0.95758   0.24003   0.77452 
C          C       0.75997   0.71755   0.77452 
C          C       0.28245   0.04242   0.77452 
O          O       0.95456   0.20826   0.70468 
O          O       0.79174   0.74630   0.70468 
O          O       0.25370   0.04544   0.70468 
C          C       0.98401   0.21040   0.84255 
C          C       0.78960   0.77361   0.84255 
C          C       0.22639   0.01599   0.84255 
C          C       0.98456   0.17761   0.77223 
C          C       0.82239   0.80695   0.77223 
C          C       0.19305   0.01544   0.77223 
O          O       0.01467   0.18051   0.90142 
O          O       0.81949   0.83416   0.90142 
O          O       0.16584   0.98533   0.90142 
C          C       0.01776   0.15455   0.74408 
C          C       0.84545   0.86321   0.74408 
C          C       0.13679   0.98224   0.74408 
C          C       0.01287   0.36072   0.40990 
C          C       0.63928   0.65215   0.40990 
C          C       0.34785   0.98713   0.40990 
O          O       0.03693   0.35725   0.21949 
O          O       0.64275   0.67968   0.21949 
O          O       0.32032   0.96307   0.21949 
C          C       0.06849   0.38471   0.31755 
C          C       0.61529   0.68378   0.31755 
C          C       0.31622   0.93151   0.31755 
C          C       0.68352   0.06624   0.51374 
C          C       0.93376   0.61728   0.51374 
C          C       0.38272   0.31648   0.51374 
O          O       0.64802   0.04824   0.47057 
O          O       0.95176   0.59978   0.47057 
O          O       0.40022   0.35198   0.47057 
C          C       0.63628   0.06629   0.66036 
C          C       0.93371   0.56999   0.66036 
C          C       0.43001   0.36372   0.66036 
C          C       0.59743   0.04600   0.68162 
C          C       0.95400   0.55143   0.68162 
C          C       0.44857   0.40257   0.68162 
O          O       0.58693   0.01485   0.84387 
O          O       0.98515   0.57208   0.84387 
O          O       0.42792   0.41307   0.84387 
C          C       0.55125   0.99744   0.82144 
C          C       0.00256   0.55381   0.82144 
C          C       0.44619   0.44875   0.82144 
C          C       0.65014   0.96168   0.58345 
C          C       0.03832   0.68846   0.58345 
C          C       0.31154   0.34986   0.58345 
C          C       0.65456   0.93463   0.40029 
C          C       0.06537   0.71993   0.40029 
C          C       0.28007   0.34544   0.40029 
O          O       0.64315   0.90564   0.60121 
O          O       0.09436   0.73751   0.60121 
O          O       0.26249   0.35685   0.60121 
C          C       0.65843   0.88803   0.46512 
C          C       0.11197   0.77040   0.46512 
C          C       0.22960   0.34157   0.46512 
H          H       0.03020   0.06445   0.26181 
H          H       0.93555   0.96575   0.26181 
H          H       0.03425   0.96980   0.26181 
H          H       0.00577   0.14956   0.48632 
H          H       0.85044   0.85621   0.48632 
H          H       0.14379   0.99423   0.48632 
H          H       0.00443   0.13059   0.90005 
H          H       0.86941   0.87384   0.90005 
H          H       0.12616   0.99557   0.90005 
H          H       0.04556   0.16258   0.71908 
H          H       0.83742   0.88298   0.71908 
H          H       0.11702   0.95444   0.71908 
H          H       0.01778   0.35923   0.68597 
H          H       0.64077   0.65855   0.68597 
H          H       0.34145   0.98222   0.68597 
H          H       0.01535   0.38626   0.35416 
H          H       0.61374   0.62909   0.35416 
H          H       0.37091   0.98465   0.35416 
H          H       0.08178   0.40101   0.09117 
H          H       0.59899   0.68077   0.09117 
H          H       0.31923   0.91822   0.09117 
H          H       0.08471   0.37475   0.42891 
H          H       0.62525   0.70996   0.42891 
H          H       0.29004   0.91529   0.42891 
H          H       0.06437   0.40047   0.51144 
H          H       0.59953   0.66390   0.51144 
H          H       0.33610   0.93563   0.51144 
H          H       0.79716   0.08741   0.16937 
H          H       0.91259   0.70975   0.16937 
H          H       0.29025   0.20284   0.16937 
H          H       0.83480   0.20656   0.76533 
H          H       0.79344   0.62824   0.76533 
H          H       0.37176   0.16520   0.76533 
H          H       0.82237   0.06928   0.14300 
H          H       0.93072   0.75309   0.14300 
H          H       0.24691   0.17763   0.14300 
H          H       0.80919   0.22416   0.77347 
H          H       0.77584   0.58503   0.77347 
H          H       0.41497   0.19081   0.77347 
H          H       0.91726   0.11455   0.12989 
H          H       0.88545   0.80271   0.12989 
H          H       0.19729   0.08274   0.12989 
H          H       0.80123   0.27056   0.68869 
H          H       0.72944   0.53067   0.68869 
H          H       0.46933   0.19877   0.68869 
H          H       0.97105   0.11556   0.18195 
H          H       0.88444   0.85549   0.18195 
H          H       0.14451   0.02895   0.18195 
H          H       0.00550   0.08568   0.22863 
H          H       0.91432   0.91982   0.22863 
H          H       0.08018   0.99450   0.22863 
H          H       0.91070   0.98683   0.26817 
H          H       0.01317   0.92387   0.26817 
H          H       0.07613   0.08930   0.26817 
H          H       0.87650   0.01676   0.22249 
H          H       0.98324   0.85974   0.22249 
H          H       0.14026   0.12350   0.22249 
H          H       0.79470   0.32061   0.62859 
H          H       0.67939   0.47409   0.62859 
H          H       0.52591   0.20530   0.62859 
H          H       0.75807   0.34827   0.59657 
H          H       0.65173   0.40980   0.59657 
H          H       0.59020   0.24193   0.59657 
H          H       0.66632   0.24808   0.72803 
H          H       0.75192   0.41824   0.72803 
H          H       0.58176   0.33368   0.72803 
H          H       0.70293   0.22068   0.76322 
H          H       0.77932   0.48225   0.76322 
H          H       0.51775   0.29707   0.76322 
H          H       0.63994   0.26766   0.65248 
H          H       0.73234   0.37228   0.65248 
H          H       0.62772   0.36006   0.65248 
H          H       0.89665   0.23624   0.99169 
H          H       0.76376   0.66041   0.99169 
H          H       0.33959   0.10335   0.99169 
H          H       0.87734   0.22850   0.57046 
H          H       0.77150   0.64884   0.57046 
H          H       0.35116   0.12266   0.57046 
H          H       0.92968   0.23437   0.31252 
H          H       0.76563   0.69531   0.31252 
H          H       0.30469   0.07032   0.31252 
H          H       0.94399   0.29266   0.81496 
H          H       0.70734   0.65133   0.81496 
H          H       0.34867   0.05601   0.81496 
H          H       0.92219   0.28508   0.40665 
H          H       0.71492   0.63711   0.40665 
H          H       0.36289   0.07781   0.40665 
H          H       0.95786   0.33567   0.47798 
H          H       0.66433   0.62219   0.47798 
H          H       0.37781   0.04214   0.47798 
H          H       0.97194   0.33415   0.04697 
H          H       0.66585   0.63779   0.04697 
H          H       0.36221   0.02806   0.04697 
H          H       0.74918   0.07757   0.56535 
H          H       0.92243   0.67161   0.56535 
H          H       0.32839   0.25082   0.56535 
H          H       0.74982   0.05885   0.15597 
H          H       0.94115   0.69097   0.15597 
H          H       0.30903   0.25018   0.15597 
H          H       0.68947   0.04413   0.05361 
H          H       0.95587   0.64534   0.05361 
H          H       0.35466   0.31053   0.05361 
H          H       0.69182   0.01726   0.75900 
H          H       0.98274   0.67456   0.75900 
H          H       0.32544   0.30818   0.75900 
H          H       0.71059   0.00771   0.39340 
H          H       0.99229   0.70288   0.39340 
H          H       0.29712   0.28941   0.39340 
H          H       0.95352   0.24180   0.05218 
H          H       0.75820   0.71172   0.05218 
H          H       0.28828   0.04648   0.05218 
H          H       0.98398   0.26079   0.70286 
H          H       0.73921   0.72319   0.70286 
H          H       0.27681   0.01602   0.70286 
H          H       0.98430   0.21437   0.12305 
H          H       0.78563   0.76993   0.12305 
H          H       0.23007   0.01570   0.12305 
H          H       0.00721   0.23254   0.72602 
H          H       0.76746   0.77467   0.72602 
H          H       0.22533   0.99279   0.72602 
H          H       0.98342   0.17316   0.49204 
H          H       0.82684   0.81026   0.49204 
H          H       0.18974   0.01658   0.49204 
H          H       0.96191   0.15553   0.89661 
H          H       0.84447   0.80638   0.89661 
H          H       0.19362   0.03809   0.89661 
H          H       0.69409   0.09312   0.41907 
H          H       0.90688   0.60097   0.41907 
H          H       0.39903   0.30591   0.41907 
H          H       0.68956   0.06685   0.78994 
H          H       0.93315   0.62271   0.78994 
H          H       0.37729   0.31044   0.78994 
H          H       0.64453   0.09165   0.53685 
H          H       0.90835   0.55288   0.53685 
H          H       0.44712   0.35547   0.53685 
H          H       0.64730   0.07059   0.92219 
H          H       0.92941   0.57671   0.92219 
H          H       0.42329   0.35270   0.92219 
H          H       0.58639   0.04109   0.41965 
H          H       0.95891   0.54530   0.41965 
H          H       0.45470   0.41361   0.41965 
H          H       0.58808   0.06102   0.82834 
H          H       0.93898   0.52706   0.82834 
H          H       0.47294   0.41192   0.82834 
H          H       0.54088   0.96971   0.88420 
H          H       0.03029   0.57117   0.88420 
H          H       0.42883   0.45912   0.88420 
H          H       0.54345   0.99975   0.55751 
H          H       0.00025   0.54370   0.55751 
H          H       0.45630   0.45655   0.55751 
H          H       0.54074   0.00889   0.00458 
H          H       0.99111   0.53185   0.00458 
H          H       0.46815   0.45926   0.00458 
H          H       0.62280   0.95034   0.66646 
H          H       0.04966   0.67246   0.66646 
H          H       0.32754   0.37720   0.66646 
H          H       0.66722   0.97039   0.81178 
H          H       0.02961   0.69683   0.81178 
H          H       0.30317   0.33278   0.81178 
H          H       0.68235   0.94516   0.33924 
H          H       0.05484   0.73719   0.33924 
H          H       0.26281   0.31765   0.33924 
H          H       0.63936   0.92737   0.15937 
H          H       0.07263   0.71199   0.15937 
H          H       0.28801   0.36064   0.15937 
H          H       0.65365   0.88490   0.18530 
H          H       0.11510   0.76875   0.18530 
H          H       0.23125   0.34635   0.18530 
H          H       0.64722   0.86214   0.58678 
H          H       0.13786   0.78508   0.58678 
H          H       0.21492   0.35278   0.58678 
H          H       0.68673   0.90286   0.51372 
H          H       0.09714   0.78387   0.51372 
H          H       0.21613   0.31327   0.51372 
