data_crystal
 
_cell_length_a    21.69060
_cell_length_b    21.69060
_cell_length_c    6.85780
_cell_angle_alpha 90.00000
_cell_angle_beta  90.00000
_cell_angle_gamma 90.00000
 
_space_group_name_Hall 'P 1'
_space_group_name_H-M_alt  'P 1'
 
loop_
_symmetry_equiv_pos_as_xyz
 'x,y,z' 
 
loop_
_atom_site_label
_atom_site_type_symbol
_atom_site_fract_x
_atom_site_fract_y
_atom_site_fract_z
C          C       0.34578   0.61001   0.25000 
C          C       0.65422   0.38999   0.25000 
C          C       0.38999   0.34578   0.25000 
C          C       0.61001   0.65422   0.25000 
C          C       0.65422   0.61001   0.25000 
C          C       0.34578   0.38999   0.25000 
C          C       0.61001   0.34578   0.25000 
C          C       0.38999   0.65422   0.25000 
C          C       0.37608   0.55433   0.25000 
C          C       0.62392   0.44567   0.25000 
C          C       0.44567   0.37608   0.25000 
C          C       0.55433   0.62392   0.25000 
C          C       0.62392   0.55433   0.25000 
C          C       0.37608   0.44567   0.25000 
C          C       0.55433   0.37608   0.25000 
C          C       0.44567   0.62392   0.25000 
C          C       0.26639   0.68714   0.25000 
C          C       0.73361   0.31286   0.25000 
C          C       0.31286   0.26639   0.25000 
C          C       0.68714   0.73361   0.25000 
C          C       0.73361   0.68714   0.25000 
C          C       0.26639   0.31286   0.25000 
C          C       0.68714   0.26639   0.25000 
C          C       0.31286   0.73361   0.25000 
C          C       0.28323   0.62447   0.25000 
C          C       0.71677   0.37553   0.25000 
C          C       0.37553   0.28323   0.25000 
C          C       0.62447   0.71677   0.25000 
C          C       0.71677   0.62447   0.25000 
C          C       0.28323   0.37553   0.25000 
C          C       0.62447   0.28323   0.25000 
C          C       0.37553   0.71677   0.25000 
C          C       0.88872   0.84418   0.25000 
C          C       0.11128   0.15582   0.25000 
C          C       0.15582   0.88872   0.25000 
C          C       0.84418   0.11128   0.25000 
C          C       0.11128   0.84418   0.25000 
C          C       0.88872   0.15582   0.25000 
C          C       0.84418   0.88872   0.25000 
C          C       0.15582   0.11128   0.25000 
C          C       0.94464   0.87439   0.25000 
C          C       0.05536   0.12561   0.25000 
C          C       0.12561   0.94464   0.25000 
C          C       0.87439   0.05536   0.25000 
C          C       0.05536   0.87439   0.25000 
C          C       0.94464   0.12561   0.25000 
C          C       0.87439   0.94464   0.25000 
C          C       0.12561   0.05536   0.25000 
C          C       0.81135   0.76485   0.25000 
C          C       0.18865   0.23515   0.25000 
C          C       0.23515   0.81135   0.25000 
C          C       0.76485   0.18865   0.25000 
C          C       0.18865   0.76485   0.25000 
C          C       0.81135   0.23515   0.25000 
C          C       0.76485   0.81135   0.25000 
C          C       0.23515   0.18865   0.25000 
C          C       0.87406   0.78166   0.25000 
C          C       0.12594   0.21834   0.25000 
C          C       0.21834   0.87406   0.25000 
C          C       0.78166   0.12594   0.25000 
C          C       0.12594   0.78166   0.25000 
C          C       0.87406   0.21834   0.25000 
C          C       0.78166   0.87406   0.25000 
C          C       0.21834   0.12594   0.25000 
O          O       0.20355   0.70198   0.25000 
O          O       0.79645   0.29802   0.25000 
O          O       0.29802   0.20355   0.25000 
O          O       0.70198   0.79645   0.25000 
O          O       0.79645   0.70198   0.25000 
O          O       0.20355   0.29802   0.25000 
O          O       0.70198   0.20355   0.25000 
O          O       0.29802   0.79645   0.25000 
H          H       0.75143   0.58857   0.25000 
H          H       0.24857   0.41143   0.25000 
H          H       0.41143   0.75143   0.25000 
H          H       0.58857   0.24857   0.25000 
H          H       0.24857   0.58857   0.25000 
H          H       0.75143   0.41143   0.25000 
H          H       0.58857   0.75143   0.25000 
H          H       0.41143   0.24857   0.25000 
F          F       0.08111   0.26195   0.25000 
F          F       0.91889   0.73805   0.25000 
F          F       0.73805   0.08111   0.25000 
F          F       0.26195   0.91889   0.25000 
F          F       0.91889   0.26195   0.25000 
F          F       0.08111   0.73805   0.25000 
F          F       0.26195   0.08111   0.25000 
F          F       0.73805   0.91889   0.25000 
N          N       0.34692   0.50000   0.25000 
N          N       0.65308   0.50000   0.25000 
N          N       0.50000   0.34692   0.25000 
N          N       0.50000   0.65308   0.25000 
N          N       0.00000   0.84583   0.25000 
N          N       0.00000   0.15417   0.25000 
N          N       0.15417   0.00000   0.25000 
N          N       0.84583   0.00000   0.25000 
N          N       0.06374   0.93626   0.25000 
N          N       0.93626   0.06374   0.25000 
N          N       0.06374   0.06374   0.25000 
N          N       0.93626   0.93626   0.25000 
N          N       0.43829   0.56171   0.25000 
N          N       0.56171   0.43829   0.25000 
N          N       0.43829   0.43829   0.25000 
N          N       0.56171   0.56171   0.25000 
Cu         Cu      0.00000   0.00000   0.25000 
Co         Co      0.50000   0.50000   0.25000 
C          C       0.34578   0.61001   0.75000 
C          C       0.65422   0.38999   0.75000 
C          C       0.38999   0.34578   0.75000 
C          C       0.61001   0.65422   0.75000 
C          C       0.65422   0.61001   0.75000 
C          C       0.34578   0.38999   0.75000 
C          C       0.61001   0.34578   0.75000 
C          C       0.38999   0.65422   0.75000 
C          C       0.37608   0.55433   0.75000 
C          C       0.62392   0.44567   0.75000 
C          C       0.44567   0.37608   0.75000 
C          C       0.55433   0.62392   0.75000 
C          C       0.62392   0.55433   0.75000 
C          C       0.37608   0.44567   0.75000 
C          C       0.55433   0.37608   0.75000 
C          C       0.44567   0.62392   0.75000 
C          C       0.26639   0.68714   0.75000 
C          C       0.73361   0.31286   0.75000 
C          C       0.31286   0.26639   0.75000 
C          C       0.68714   0.73361   0.75000 
C          C       0.73361   0.68714   0.75000 
C          C       0.26639   0.31286   0.75000 
C          C       0.68714   0.26639   0.75000 
C          C       0.31286   0.73361   0.75000 
C          C       0.28323   0.62447   0.75000 
C          C       0.71677   0.37553   0.75000 
C          C       0.37553   0.28323   0.75000 
C          C       0.62447   0.71677   0.75000 
C          C       0.71677   0.62447   0.75000 
C          C       0.28323   0.37553   0.75000 
C          C       0.62447   0.28323   0.75000 
C          C       0.37553   0.71677   0.75000 
C          C       0.88872   0.84418   0.75000 
C          C       0.11128   0.15582   0.75000 
C          C       0.15582   0.88872   0.75000 
C          C       0.84418   0.11128   0.75000 
C          C       0.11128   0.84418   0.75000 
C          C       0.88872   0.15582   0.75000 
C          C       0.84418   0.88872   0.75000 
C          C       0.15582   0.11128   0.75000 
C          C       0.94464   0.87439   0.75000 
C          C       0.05536   0.12561   0.75000 
C          C       0.12561   0.94464   0.75000 
C          C       0.87439   0.05536   0.75000 
C          C       0.05536   0.87439   0.75000 
C          C       0.94464   0.12561   0.75000 
C          C       0.87439   0.94464   0.75000 
C          C       0.12561   0.05536   0.75000 
C          C       0.81135   0.76485   0.75000 
C          C       0.18865   0.23515   0.75000 
C          C       0.23515   0.81135   0.75000 
C          C       0.76485   0.18865   0.75000 
C          C       0.18865   0.76485   0.75000 
C          C       0.81135   0.23515   0.75000 
C          C       0.76485   0.81135   0.75000 
C          C       0.23515   0.18865   0.75000 
C          C       0.87406   0.78166   0.75000 
C          C       0.12594   0.21834   0.75000 
C          C       0.21834   0.87406   0.75000 
C          C       0.78166   0.12594   0.75000 
C          C       0.12594   0.78166   0.75000 
C          C       0.87406   0.21834   0.75000 
C          C       0.78166   0.87406   0.75000 
C          C       0.21834   0.12594   0.75000 
O          O       0.20355   0.70198   0.75000 
O          O       0.79645   0.29802   0.75000 
O          O       0.29802   0.20355   0.75000 
O          O       0.70198   0.79645   0.75000 
O          O       0.79645   0.70198   0.75000 
O          O       0.20355   0.29802   0.75000 
O          O       0.70198   0.20355   0.75000 
O          O       0.29802   0.79645   0.75000 
H          H       0.75143   0.58857   0.75000 
H          H       0.24857   0.41143   0.75000 
H          H       0.41143   0.75143   0.75000 
H          H       0.58857   0.24857   0.75000 
H          H       0.24857   0.58857   0.75000 
H          H       0.75143   0.41143   0.75000 
H          H       0.58857   0.75143   0.75000 
H          H       0.41143   0.24857   0.75000 
F          F       0.08111   0.26195   0.75000 
F          F       0.91889   0.73805   0.75000 
F          F       0.73805   0.08111   0.75000 
F          F       0.26195   0.91889   0.75000 
F          F       0.91889   0.26195   0.75000 
F          F       0.08111   0.73805   0.75000 
F          F       0.26195   0.08111   0.75000 
F          F       0.73805   0.91889   0.75000 
N          N       0.34692   0.50000   0.75000 
N          N       0.65308   0.50000   0.75000 
N          N       0.50000   0.34692   0.75000 
N          N       0.50000   0.65308   0.75000 
N          N       0.00000   0.84583   0.75000 
N          N       0.00000   0.15417   0.75000 
N          N       0.15417   0.00000   0.75000 
N          N       0.84583   0.00000   0.75000 
N          N       0.06374   0.93626   0.75000 
N          N       0.93626   0.06374   0.75000 
N          N       0.06374   0.06374   0.75000 
N          N       0.93626   0.93626   0.75000 
N          N       0.43829   0.56171   0.75000 
N          N       0.56171   0.43829   0.75000 
N          N       0.43829   0.43829   0.75000 
N          N       0.56171   0.56171   0.75000 
Cu         Cu      0.00000   0.00000   0.75000 
Co         Co      0.50000   0.50000   0.75000 
