data_crystal
 
_cell_length_a    18.36000
_cell_length_b    17.57000
_cell_length_c    6.66000
_cell_angle_alpha 93.67000
_cell_angle_beta  87.57000
_cell_angle_gamma 118.37000
 
_space_group_name_Hall 'P 1'
_space_group_name_H-M_alt  'P 1'
 
loop_
_symmetry_equiv_pos_as_xyz
 'x,y,z' 
 
loop_
_atom_site_label
_atom_site_type_symbol
_atom_site_fract_x
_atom_site_fract_y
_atom_site_fract_z
C          C       0.19863   0.70282   0.48369 
C          C       0.21049   0.78887   0.48369 
N          N       0.27546   0.69998   0.48369 
C          C       0.34701   0.78517   0.48369 
S          S       0.32155   0.87169   0.48370 
N          N       0.87105   0.56579   0.48369 
C          C       0.78692   0.49109   0.48369 
N          N       0.77811   0.40735   0.48369 
C          C       0.85281   0.39792   0.48369 
N          N       0.93655   0.47285   0.48369 
C          C       0.94598   0.55698   0.48369 
C          C       0.70632   0.50132   0.48370 
C          C       0.84258   0.30708   0.48369 
C          C       0.71759   0.58878   0.48370 
C          C       0.64108   0.59790   0.48370 
C          C       0.55503   0.52370   0.48369 
C          C       0.54149   0.43575   0.48369 
C          C       0.61805   0.42478   0.48369 
C          C       0.75512   0.23090   0.48370 
C          C       0.74600   0.14527   0.48370 
C          C       0.82020   0.13342   0.48369 
C          C       0.90815   0.20783   0.48368 
C          C       0.91912   0.29535   0.48368 
N          N       0.64392   0.67757   0.48370 
C          C       0.55873   0.66393   0.48369 
S          S       0.47221   0.55195   0.48369 
C          C       0.54284   0.74101   0.48369 
C          C       0.61673   0.82963   0.48370 
C          C       0.60289   0.90392   0.48370 
C          C       0.51428   0.88919   0.48369 
C          C       0.43998   0.80106   0.48369 
C          C       0.45472   0.72718   0.48369 
N          N       0.66634   0.06844   0.48370 
C          C       0.67997   0.99689   0.48370 
S          S       0.79195   0.02235   0.48369 
C          C       0.13607   0.80241   0.48370 
C          C       0.04855   0.72586   0.48370 
C          C       0.03682   0.63758   0.48369 
C          C       0.11300   0.62631   0.48369 
H          H       0.14433   0.86802   0.48370 
H          H       0.99510   0.73710   0.48370 
H          H       0.70119   0.24131   0.48370 
H          H       0.96120   0.19593   0.48368 
H          H       0.98076   0.35104   0.48368 
H          H       0.10614   0.56125   0.48369 
H          H       0.40278   0.66188   0.48369 
H          H       0.67930   0.83763   0.48370 
H          H       0.77894   0.64493   0.48370 
H          H       0.47954   0.38055   0.48369 
H          H       0.61049   0.35944   0.48369 
H          H       0.50425   0.94550   0.48369 
C          C       0.19863   0.70282   0.98369 
C          C       0.21049   0.78887   0.98369 
N          N       0.27546   0.69998   0.98369 
C          C       0.34701   0.78517   0.98369 
S          S       0.32155   0.87169   0.98370 
N          N       0.87105   0.56579   0.98369 
C          C       0.78692   0.49109   0.98369 
N          N       0.77811   0.40735   0.98369 
C          C       0.85281   0.39792   0.98369 
N          N       0.93655   0.47285   0.98369 
C          C       0.94598   0.55698   0.98369 
C          C       0.70632   0.50132   0.98370 
C          C       0.84258   0.30708   0.98369 
C          C       0.71759   0.58878   0.98370 
C          C       0.64108   0.59790   0.98370 
C          C       0.55503   0.52370   0.98369 
C          C       0.54149   0.43575   0.98369 
C          C       0.61805   0.42478   0.98369 
C          C       0.75512   0.23090   0.98370 
C          C       0.74600   0.14527   0.98370 
C          C       0.82020   0.13342   0.98369 
C          C       0.90815   0.20783   0.98369 
C          C       0.91912   0.29535   0.98369 
N          N       0.64392   0.67757   0.98370 
C          C       0.55873   0.66393   0.98369 
S          S       0.47221   0.55195   0.98369 
C          C       0.54284   0.74101   0.98369 
C          C       0.61673   0.82963   0.98370 
C          C       0.60289   0.90392   0.98370 
C          C       0.51428   0.88919   0.98369 
C          C       0.43998   0.80106   0.98369 
C          C       0.45472   0.72718   0.98369 
N          N       0.66634   0.06844   0.98371 
C          C       0.67997   0.99689   0.98370 
S          S       0.79195   0.02235   0.98369 
C          C       0.13607   0.80241   0.98370 
C          C       0.04855   0.72586   0.98370 
C          C       0.03682   0.63758   0.98369 
C          C       0.11300   0.62631   0.98369 
H          H       0.14433   0.86802   0.98370 
H          H       0.99510   0.73710   0.98370 
H          H       0.70119   0.24131   0.98370 
H          H       0.96120   0.19593   0.98368 
H          H       0.98076   0.35104   0.98368 
H          H       0.10614   0.56125   0.98369 
H          H       0.40278   0.66188   0.98369 
H          H       0.67930   0.83763   0.98370 
H          H       0.77894   0.64493   0.98370 
H          H       0.47954   0.38055   0.98369 
H          H       0.61049   0.35944   0.98369 
H          H       0.50425   0.94550   0.98369 
