data_crystal
 
_cell_length_a    23.11000
_cell_length_b    22.58000
_cell_length_c    6.86000
_cell_angle_alpha 83.75000
_cell_angle_beta  90.06000
_cell_angle_gamma 118.56000
 
_space_group_name_Hall 'P 1'
_space_group_name_H-M_alt  'P 1'
 
loop_
_symmetry_equiv_pos_as_xyz
 'x,y,z' 
 
loop_
_atom_site_label
_atom_site_type_symbol
_atom_site_fract_x
_atom_site_fract_y
_atom_site_fract_z
N          N       0.84562   0.67982   0.49154 
C          C       0.78013   0.62541   0.00019 
N          N       0.76955   0.56006   0.00199 
C          C       0.82337   0.54876   0.49493 
N          N       0.88783   0.60326   0.48586 
C          C       0.89981   0.66860   0.48384 
C          C       0.72005   0.63575   0.01099 
C          C       0.81408   0.47878   0.00181 
C          C       0.72629   0.70159   0.00343 
C          C       0.66639   0.70639   0.01580 
C          C       0.60302   0.64850   0.03587 
C          C       0.59557   0.58340   0.04300 
C          C       0.65431   0.57738   0.03037 
C          C       0.74880   0.41851   0.49872 
C          C       0.74562   0.35449   0.00703 
C          C       0.80449   0.35035   0.01919 
C          C       0.86904   0.40871   0.02185 
C          C       0.87346   0.47276   0.01292 
N          N       0.66409   0.76502   0.01007 
C          C       0.59809   0.75070   0.02768 
S          S       0.53742   0.66488   0.05015 
N          N       0.68773   0.29298   0.00458 
C          C       0.70368   0.24231   0.01665 
S          S       0.79004   0.26904   0.02999 
C          C       0.57766   0.80401   0.02602 
C          C       0.65151   0.16836   0.01685 
C          C       0.62221   0.87135   0.46299 
C          C       0.59946   0.91925   0.45378 
C          C       0.53225   0.90187   0.01063 
C          C       0.48929   0.83450   0.07810 
C          C       0.51110   0.78641   0.08363 
C          C       0.58330   0.14457   0.46147 
C          C       0.53620   0.07379   0.45493 
C          C       0.55541   0.02490   0.00606 
C          C       0.62375   0.05021   0.06488 
C          C       0.67101   0.12032   0.06858 
N          N       0.50700   0.95079   0.49677 
C          C       0.43290   0.92433   0.47614 
C          C       0.40196   0.96330   0.02921 
C          C       0.33052   0.93573   0.01826 
C          C       0.28789   0.86776   0.45678 
C          C       0.31816   0.82911   0.40111 
C          C       0.38909   0.85713   0.40871 
C          C       0.21209   0.83511   0.45660 
N          N       0.17876   0.87102   0.47681 
C          C       0.11060   0.82763   0.47588 
C          C       0.09243   0.75995   0.45703 
S          S       0.16028   0.74719   0.43727 
C          C       0.06041   0.84675   0.49384 
C          C       0.99060   0.79498   0.49418 
C          C       0.97201   0.72524   0.47702 
C          C       0.02406   0.70827   0.45798 
H          H       0.64952   0.52685   0.03550 
H          H       0.43171   0.01308   0.07727 
H          H       0.70419   0.42340   0.49024 
H          H       0.54690   0.53873   0.05764 
H          H       0.30806   0.96606   0.05641 
H          H       0.91311   0.40283   0.03060 
H          H       0.92133   0.51786   0.01432 
H          H       0.41146   0.82761   0.36289 
H          H       0.56721   0.18228   0.42315 
H          H       0.63963   0.01268   0.10908 
H          H       0.48636   0.05912   0.41048 
H          H       0.72106   0.13513   0.11125 
H          H       0.67339   0.88676   0.42175 
H          H       0.28826   0.77927   0.35363 
H          H       0.43869   0.81909   0.12664 
H          H       0.95238   0.80968   0.00763 
H          H       0.77453   0.74685   0.48881 
H          H       0.47627   0.73346   0.13359 
H          H       0.63406   0.97205   0.40131 
H          H       0.07369   0.89930   0.00721 
H          H       0.01197   0.65607   0.44414 
N          N       0.84562   0.67982   0.99154 
C          C       0.78013   0.62541   0.50019 
N          N       0.76955   0.56006   0.50199 
C          C       0.82337   0.54876   0.99493 
N          N       0.88783   0.60326   0.98586 
C          C       0.89981   0.66860   0.98384 
C          C       0.72005   0.63575   0.51099 
C          C       0.81408   0.47878   0.50181 
C          C       0.72629   0.70159   0.50343 
C          C       0.66639   0.70639   0.51580 
C          C       0.60302   0.64850   0.53587 
C          C       0.59557   0.58340   0.54300 
C          C       0.65431   0.57738   0.53037 
C          C       0.74880   0.41851   0.99872 
C          C       0.74562   0.35449   0.50703 
C          C       0.80449   0.35035   0.51919 
C          C       0.86904   0.40871   0.52185 
C          C       0.87346   0.47276   0.51292 
N          N       0.66409   0.76502   0.51007 
C          C       0.59809   0.75070   0.52768 
S          S       0.53742   0.66488   0.55015 
N          N       0.68773   0.29298   0.50458 
C          C       0.70368   0.24231   0.51665 
S          S       0.79004   0.26904   0.52999 
C          C       0.57766   0.80401   0.52602 
C          C       0.65151   0.16836   0.51685 
C          C       0.62221   0.87135   0.96299 
C          C       0.59946   0.91925   0.95378 
C          C       0.53225   0.90187   0.51063 
C          C       0.48929   0.83450   0.57810 
C          C       0.51110   0.78641   0.58363 
C          C       0.58330   0.14457   0.96147 
C          C       0.53620   0.07379   0.95493 
C          C       0.55541   0.02490   0.50606 
C          C       0.62375   0.05021   0.56488 
C          C       0.67101   0.12032   0.56858 
N          N       0.50700   0.95079   0.99677 
C          C       0.43290   0.92433   0.97614 
C          C       0.40196   0.96330   0.52921 
C          C       0.33052   0.93573   0.51826 
C          C       0.28789   0.86776   0.95678 
C          C       0.31816   0.82911   0.90111 
C          C       0.38909   0.85713   0.90872 
C          C       0.21209   0.83511   0.95660 
N          N       0.17876   0.87102   0.97681 
C          C       0.11060   0.82763   0.97588 
C          C       0.09243   0.75995   0.95703 
S          S       0.16028   0.74719   0.93727 
C          C       0.06041   0.84675   0.99384 
C          C       0.99060   0.79498   0.99418 
C          C       0.97201   0.72524   0.97702 
C          C       0.02406   0.70827   0.95798 
H          H       0.64952   0.52685   0.53550 
H          H       0.43171   0.01308   0.57727 
H          H       0.70419   0.42340   0.99024 
H          H       0.54690   0.53873   0.55764 
H          H       0.30806   0.96606   0.55641 
H          H       0.91311   0.40283   0.53060 
H          H       0.92133   0.51786   0.51432 
H          H       0.41146   0.82761   0.86289 
H          H       0.56721   0.18228   0.92315 
H          H       0.63963   0.01268   0.60908 
H          H       0.48636   0.05912   0.91048 
H          H       0.72106   0.13513   0.61125 
H          H       0.67339   0.88676   0.92175 
H          H       0.28826   0.77927   0.85363 
H          H       0.43869   0.81909   0.62664 
H          H       0.95238   0.80968   0.50763 
H          H       0.77453   0.74685   0.98881 
H          H       0.47627   0.73346   0.63359 
H          H       0.63406   0.97205   0.90131 
H          H       0.07369   0.89930   0.50721 
H          H       0.01197   0.65607   0.94414 
