data_crystal
 
_cell_length_a    21.49000
_cell_length_b    21.49000
_cell_length_c    12.70000
_cell_angle_alpha 90.00000
_cell_angle_beta  90.00000
_cell_angle_gamma 120.00000
 
_symmetry_space_group_name_Hall 'P 1'
_symmetry_space_group_name_H-M  'P 1'
 
loop_
_symmetry_equiv_pos_as_xyz
 'x,y,z' 
 
loop_
_atom_site_label
_atom_site_type_symbol
_atom_site_fract_x
_atom_site_fract_y
_atom_site_fract_z
C          C       0.70329   0.29671   0.12500 
C          C       0.70329   0.40658   0.12500 
C          C       0.59342   0.29671   0.12500 
C          C       0.29671   0.70329   0.37500 
C          C       0.29671   0.59342   0.37500 
C          C       0.40658   0.70329   0.37500 
C          C       0.96342   0.03658   0.12500 
C          C       0.96342   0.92684   0.12500 
C          C       0.07316   0.03658   0.12500 
C          C       0.03658   0.96342   0.37500 
C          C       0.03658   0.07316   0.37500 
C          C       0.92684   0.96342   0.37500 
C          C       0.95393   0.14832   0.12500 
C          C       0.85168   0.80561   0.12500 
C          C       0.19439   0.04607   0.12500 
C          C       0.04607   0.85168   0.37500 
C          C       0.14832   0.19439   0.37500 
C          C       0.80561   0.95393   0.37500 
C          C       0.89755   0.16699   0.12500 
C          C       0.83301   0.73056   0.12500 
C          C       0.26944   0.10245   0.12500 
C          C       0.10245   0.83301   0.37500 
C          C       0.16699   0.26944   0.37500 
C          C       0.73056   0.89755   0.37500 
C          C       0.71289   0.18484   0.12500 
C          C       0.81516   0.52805   0.12500 
C          C       0.47195   0.28711   0.12500 
C          C       0.28711   0.81516   0.37500 
C          C       0.18484   0.47195   0.37500 
C          C       0.52805   0.71289   0.37500 
C          C       0.76932   0.16613   0.12500 
C          C       0.83387   0.60319   0.12500 
C          C       0.39681   0.23068   0.12500 
C          C       0.23068   0.83387   0.37500 
C          C       0.16613   0.39681   0.37500 
C          C       0.60319   0.76932   0.37500 
C          C       0.90050   0.23361   0.12500 
C          C       0.76639   0.66689   0.12500 
C          C       0.33311   0.09950   0.12500 
C          C       0.09950   0.76639   0.37500 
C          C       0.23361   0.33311   0.37500 
C          C       0.66689   0.90050   0.37500 
N          N       0.73937   0.36969   0.12500 
N          N       0.63031   0.36968   0.12500 
N          N       0.63032   0.26063   0.12500 
N          N       0.26063   0.63031   0.37500 
N          N       0.36969   0.63032   0.37500 
N          N       0.36968   0.73937   0.37500 
N          N       0.92734   0.96367   0.12500 
N          N       0.03633   0.96367   0.12500 
N          N       0.03633   0.07266   0.12500 
N          N       0.07266   0.03633   0.37500 
N          N       0.96367   0.03633   0.37500 
N          N       0.96367   0.92734   0.37500 
N          N       0.92480   0.07520   0.12500 
N          N       0.92480   0.84960   0.12500 
N          N       0.15040   0.07520   0.12500 
N          N       0.07520   0.92480   0.37500 
N          N       0.07520   0.15040   0.37500 
N          N       0.84960   0.92480   0.37500 
N          N       0.74199   0.25801   0.12500 
N          N       0.74199   0.48398   0.12500 
N          N       0.51602   0.25801   0.12500 
N          N       0.25801   0.74199   0.37500 
N          N       0.25801   0.51602   0.37500 
N          N       0.48398   0.74199   0.37500 
O          O       0.01819   0.19136   0.12500 
O          O       0.80864   0.82683   0.12500 
O          O       0.17317   0.98181   0.12500 
O          O       0.98181   0.80864   0.37500 
O          O       0.19136   0.17317   0.37500 
O          O       0.82683   0.01819   0.37500 
O          O       0.64863   0.14177   0.12500 
O          O       0.85823   0.50686   0.12500 
O          O       0.49314   0.35137   0.12500 
O          O       0.35137   0.85823   0.37500 
O          O       0.14177   0.49314   0.37500 
O          O       0.50686   0.64863   0.37500 
H          H       0.95087   0.28393   0.12500 
H          H       0.71607   0.66694   0.12500 
H          H       0.33306   0.04913   0.12500 
H          H       0.04913   0.71607   0.37500 
H          H       0.28393   0.33306   0.37500 
H          H       0.66694   0.95087   0.37500 
C          C       0.70329   0.29671   0.62500 
C          C       0.70329   0.40658   0.62500 
C          C       0.59342   0.29671   0.62500 
C          C       0.29671   0.70329   0.87500 
C          C       0.29671   0.59342   0.87500 
C          C       0.40658   0.70329   0.87500 
C          C       0.96342   0.03658   0.62500 
C          C       0.96342   0.92684   0.62500 
C          C       0.07316   0.03658   0.62500 
C          C       0.03658   0.96342   0.87500 
C          C       0.03658   0.07316   0.87500 
C          C       0.92684   0.96342   0.87500 
C          C       0.95393   0.14832   0.62500 
C          C       0.85168   0.80561   0.62500 
C          C       0.19439   0.04607   0.62500 
C          C       0.04607   0.85168   0.87500 
C          C       0.14832   0.19439   0.87500 
C          C       0.80561   0.95393   0.87500 
C          C       0.89755   0.16699   0.62500 
C          C       0.83301   0.73056   0.62500 
C          C       0.26944   0.10245   0.62500 
C          C       0.10245   0.83301   0.87500 
C          C       0.16699   0.26944   0.87500 
C          C       0.73056   0.89755   0.87500 
C          C       0.71289   0.18484   0.62500 
C          C       0.81516   0.52805   0.62500 
C          C       0.47195   0.28711   0.62500 
C          C       0.28711   0.81516   0.87500 
C          C       0.18484   0.47195   0.87500 
C          C       0.52805   0.71289   0.87500 
C          C       0.76932   0.16613   0.62500 
C          C       0.83387   0.60319   0.62500 
C          C       0.39681   0.23068   0.62500 
C          C       0.23068   0.83387   0.87500 
C          C       0.16613   0.39681   0.87500 
C          C       0.60319   0.76932   0.87500 
C          C       0.90050   0.23361   0.62500 
C          C       0.76639   0.66689   0.62500 
C          C       0.33311   0.09950   0.62500 
C          C       0.09950   0.76639   0.87500 
C          C       0.23361   0.33311   0.87500 
C          C       0.66689   0.90050   0.87500 
N          N       0.73937   0.36969   0.62500 
N          N       0.63031   0.36968   0.62500 
N          N       0.63032   0.26063   0.62500 
N          N       0.26063   0.63031   0.87500 
N          N       0.36969   0.63032   0.87500 
N          N       0.36968   0.73937   0.87500 
N          N       0.92734   0.96367   0.62500 
N          N       0.03633   0.96367   0.62500 
N          N       0.03633   0.07266   0.62500 
N          N       0.07266   0.03633   0.87500 
N          N       0.96367   0.03633   0.87500 
N          N       0.96367   0.92734   0.87500 
N          N       0.92480   0.07520   0.62500 
N          N       0.92480   0.84960   0.62500 
N          N       0.15040   0.07520   0.62500 
N          N       0.07520   0.92480   0.87500 
N          N       0.07520   0.15040   0.87500 
N          N       0.84960   0.92480   0.87500 
N          N       0.74199   0.25801   0.62500 
N          N       0.74199   0.48398   0.62500 
N          N       0.51602   0.25801   0.62500 
N          N       0.25801   0.74199   0.87500 
N          N       0.25801   0.51602   0.87500 
N          N       0.48398   0.74199   0.87500 
O          O       0.01819   0.19136   0.62500 
O          O       0.80864   0.82683   0.62500 
O          O       0.17317   0.98181   0.62500 
O          O       0.98181   0.80864   0.87500 
O          O       0.19136   0.17317   0.87500 
O          O       0.82683   0.01819   0.87500 
O          O       0.64863   0.14177   0.62500 
O          O       0.85823   0.50686   0.62500 
O          O       0.49314   0.35137   0.62500 
O          O       0.35137   0.85823   0.87500 
O          O       0.14177   0.49314   0.87500 
O          O       0.50686   0.64863   0.87500 
H          H       0.95087   0.28393   0.62500 
H          H       0.71607   0.66694   0.62500 
H          H       0.33306   0.04913   0.62500 
H          H       0.04913   0.71607   0.87500 
H          H       0.28393   0.33306   0.87500 
H          H       0.66694   0.95087   0.87500 
