data_crystal
 
_cell_length_a    23.99220
_cell_length_b    25.79330
_cell_length_c    6.26360
_cell_angle_alpha 90.00000
_cell_angle_beta  87.36000
_cell_angle_gamma 90.00000
 
_symmetry_space_group_name_Hall 'P 1'
_symmetry_space_group_name_H-M  'P 1'
 
loop_
_symmetry_equiv_pos_as_xyz
 'x,y,z' 
 
loop_
_atom_site_label
_atom_site_type_symbol
_atom_site_fract_x
_atom_site_fract_y
_atom_site_fract_z
C          C       0.88882   0.95218   0.38393 
C          C       0.88882   0.04782   0.38393 
C          C       0.94274   0.95258   0.45862 
C          C       0.94274   0.04742   0.45862 
C          C       0.80145   0.89813   0.39044 
C          C       0.80145   0.10187   0.39044 
C          C       0.85879   0.90172   0.35369 
C          C       0.85879   0.09828   0.35369 
C          C       0.88720   0.85641   0.29401 
C          C       0.88720   0.14359   0.29401 
C          C       0.85887   0.80874   0.27281 
C          C       0.85887   0.19126   0.27281 
C          C       0.80178   0.80557   0.30716 
C          C       0.80178   0.19443   0.30716 
C          C       0.77321   0.85061   0.36716 
C          C       0.77321   0.14939   0.36716 
C          C       0.64013   0.69158   0.20631 
C          C       0.64013   0.30842   0.20631 
C          C       0.69631   0.69682   0.25481 
C          C       0.69631   0.30318   0.25481 
C          C       0.72585   0.65231   0.31426 
C          C       0.72585   0.34769   0.31426 
C          C       0.61350   0.64299   0.22083 
C          C       0.61350   0.35701   0.22083 
C          C       0.64247   0.59854   0.28498 
C          C       0.64247   0.40146   0.28498 
C          C       0.69917   0.60366   0.32952 
C          C       0.69917   0.39634   0.32952 
C          C       0.61301   0.54779   0.31454 
C          C       0.61301   0.45221   0.31454 
C          C       0.55872   0.45266   0.38638 
C          C       0.55872   0.54734   0.38638 
C          C       0.22234   0.24931   0.24864 
C          C       0.22234   0.75069   0.24864 
N          N       0.27462   0.25556   0.20847 
N          N       0.27462   0.74444   0.20847 
C          C       0.11302   0.04779   0.18544 
C          C       0.11302   0.95221   0.18544 
C          C       0.05872   0.04734   0.11359 
C          C       0.05872   0.95266   0.11359 
C          C       0.19918   0.10366   0.17046 
C          C       0.19918   0.89634   0.17046 
C          C       0.14248   0.09854   0.21499 
C          C       0.14248   0.90146   0.21499 
C          C       0.11351   0.14299   0.27915 
C          C       0.11351   0.85701   0.27915 
C          C       0.14014   0.19158   0.29367 
C          C       0.14014   0.80842   0.29367 
C          C       0.19631   0.19681   0.24517 
C          C       0.19631   0.80319   0.24517 
C          C       0.22585   0.15231   0.18571 
C          C       0.22585   0.84769   0.18571 
C          C       0.35888   0.30874   0.22719 
C          C       0.35888   0.69126   0.22719 
C          C       0.30179   0.30557   0.19283 
C          C       0.30179   0.69443   0.19283 
C          C       0.27322   0.35061   0.13282 
C          C       0.27322   0.64939   0.13282 
C          C       0.38721   0.35641   0.20599 
C          C       0.38721   0.64359   0.20599 
C          C       0.35880   0.40172   0.14629 
C          C       0.35880   0.59828   0.14629 
C          C       0.30146   0.39812   0.10954 
C          C       0.30146   0.60188   0.10954 
C          C       0.38882   0.45218   0.11606 
C          C       0.38882   0.54782   0.11606 
C          C       0.44274   0.54742   0.04136 
C          C       0.44274   0.45258   0.04136 
N          N       0.77462   0.75556   0.29151 
N          N       0.77462   0.24444   0.29151 
C          C       0.72233   0.74931   0.25135 
C          C       0.72233   0.25069   0.25135 
H          H       0.96033   0.91508   0.49216 
H          H       0.96033   0.08492   0.49216 
H          H       0.77873   0.93164   0.44324 
H          H       0.77873   0.06836   0.44324 
H          H       0.93117   0.85782   0.26244 
H          H       0.93117   0.14218   0.26244 
H          H       0.88112   0.77409   0.22776 
H          H       0.88112   0.22591   0.22776 
H          H       0.72962   0.84865   0.40292 
H          H       0.72962   0.15135   0.40292 
H          H       0.61668   0.72529   0.15865 
H          H       0.61668   0.27471   0.15865 
H          H       0.76908   0.65568   0.35452 
H          H       0.76908   0.34432   0.35452 
H          H       0.57012   0.64025   0.18222 
H          H       0.57012   0.35975   0.18222 
H          H       0.72233   0.57055   0.38336 
H          H       0.72233   0.42945   0.38336 
H          H       0.54078   0.41518   0.41805 
H          H       0.54078   0.58482   0.41805 
H          H       0.19667   0.28285   0.28356 
H          H       0.19667   0.71715   0.28356 
H          H       0.04079   0.08482   0.08193 
H          H       0.04079   0.91518   0.08193 
H          H       0.22233   0.07055   0.11660 
H          H       0.22233   0.92945   0.11660 
H          H       0.07013   0.14025   0.31776 
H          H       0.07013   0.85975   0.31776 
H          H       0.11669   0.22529   0.34134 
H          H       0.11669   0.77471   0.34134 
H          H       0.26908   0.15567   0.14544 
H          H       0.26908   0.84433   0.14544 
H          H       0.38113   0.27409   0.27224 
H          H       0.38113   0.72591   0.27224 
H          H       0.22962   0.34865   0.09706 
H          H       0.22962   0.65135   0.09706 
H          H       0.43118   0.35783   0.23755 
H          H       0.43118   0.64217   0.23755 
H          H       0.27874   0.43163   0.05674 
H          H       0.27874   0.56837   0.05674 
H          H       0.46033   0.58492   0.00784 
H          H       0.46033   0.41508   0.00784 
H          H       0.69666   0.78286   0.21642 
H          H       0.69666   0.21714   0.21642 
C          C       0.63956   0.50000   0.27730 
C          C       0.47146   0.50000   0.00389 
C          C       0.36280   0.50000   0.15619 
C          C       0.52996   0.50000   0.42343 
H          H       0.68070   0.50000   0.21661 
H          H       0.32223   0.50000   0.22097 
C          C       0.13956   0.00000   0.22267 
C          C       0.02996   0.00000   0.07655 
C          C       0.86280   0.00000   0.34379 
C          C       0.97146   0.00000   0.49610 
H          H       0.18071   0.00000   0.28337 
H          H       0.82223   0.00000   0.27901 
C          C       0.88882   0.95218   0.88393 
C          C       0.88882   0.04782   0.88393 
C          C       0.94274   0.95258   0.95862 
C          C       0.94274   0.04742   0.95862 
C          C       0.80145   0.89813   0.89044 
C          C       0.80145   0.10187   0.89044 
C          C       0.85879   0.90172   0.85370 
C          C       0.85879   0.09828   0.85370 
C          C       0.88720   0.85641   0.79401 
C          C       0.88720   0.14359   0.79401 
C          C       0.85887   0.80874   0.77281 
C          C       0.85887   0.19126   0.77281 
C          C       0.80178   0.80557   0.80716 
C          C       0.80178   0.19443   0.80716 
C          C       0.77321   0.85061   0.86716 
C          C       0.77321   0.14939   0.86716 
C          C       0.64013   0.69158   0.70631 
C          C       0.64013   0.30842   0.70631 
C          C       0.69631   0.69682   0.75481 
C          C       0.69631   0.30318   0.75481 
C          C       0.72585   0.65231   0.81426 
C          C       0.72585   0.34769   0.81426 
C          C       0.61350   0.64299   0.72083 
C          C       0.61350   0.35701   0.72083 
C          C       0.64247   0.59854   0.78499 
C          C       0.64247   0.40146   0.78499 
C          C       0.69917   0.60366   0.82952 
C          C       0.69917   0.39634   0.82952 
C          C       0.61301   0.54779   0.81454 
C          C       0.61301   0.45221   0.81454 
C          C       0.55872   0.45266   0.88638 
C          C       0.55872   0.54734   0.88638 
C          C       0.22234   0.24931   0.74864 
C          C       0.22234   0.75069   0.74864 
N          N       0.27462   0.25556   0.70847 
N          N       0.27462   0.74444   0.70847 
C          C       0.11302   0.04779   0.68544 
C          C       0.11302   0.95221   0.68544 
C          C       0.05872   0.04734   0.61359 
C          C       0.05872   0.95266   0.61359 
C          C       0.19918   0.10366   0.67046 
C          C       0.19918   0.89634   0.67046 
C          C       0.14248   0.09854   0.71499 
C          C       0.14248   0.90146   0.71499 
C          C       0.11351   0.14299   0.77915 
C          C       0.11351   0.85701   0.77915 
C          C       0.14014   0.19158   0.79367 
C          C       0.14014   0.80842   0.79367 
C          C       0.19631   0.19681   0.74517 
C          C       0.19631   0.80319   0.74517 
C          C       0.22585   0.15231   0.68571 
C          C       0.22585   0.84769   0.68571 
C          C       0.35888   0.30874   0.72719 
C          C       0.35888   0.69126   0.72719 
C          C       0.30179   0.30557   0.69283 
C          C       0.30179   0.69443   0.69283 
C          C       0.27322   0.35061   0.63282 
C          C       0.27322   0.64939   0.63282 
C          C       0.38721   0.35641   0.70599 
C          C       0.38721   0.64359   0.70599 
C          C       0.35880   0.40172   0.64629 
C          C       0.35880   0.59828   0.64629 
C          C       0.30146   0.39812   0.60954 
C          C       0.30146   0.60188   0.60954 
C          C       0.38882   0.45218   0.61606 
C          C       0.38882   0.54782   0.61606 
C          C       0.44274   0.54742   0.54136 
C          C       0.44274   0.45258   0.54136 
N          N       0.77462   0.75556   0.79151 
N          N       0.77462   0.24444   0.79151 
C          C       0.72233   0.74931   0.75135 
C          C       0.72233   0.25069   0.75135 
H          H       0.96033   0.91508   0.99216 
H          H       0.96033   0.08492   0.99216 
H          H       0.77873   0.93164   0.94323 
H          H       0.77873   0.06836   0.94323 
H          H       0.93117   0.85782   0.76245 
H          H       0.93117   0.14218   0.76245 
H          H       0.88112   0.77409   0.72776 
H          H       0.88112   0.22591   0.72776 
H          H       0.72962   0.84865   0.90291 
H          H       0.72962   0.15135   0.90291 
H          H       0.61668   0.72529   0.65865 
H          H       0.61668   0.27471   0.65865 
H          H       0.76908   0.65568   0.85452 
H          H       0.76908   0.34432   0.85452 
H          H       0.57012   0.64025   0.68222 
H          H       0.57012   0.35975   0.68222 
H          H       0.72233   0.57055   0.88335 
H          H       0.72233   0.42945   0.88335 
H          H       0.54078   0.41518   0.91805 
H          H       0.54078   0.58482   0.91805 
H          H       0.19667   0.28285   0.78356 
H          H       0.19667   0.71715   0.78356 
H          H       0.04079   0.08482   0.58193 
H          H       0.04079   0.91518   0.58193 
H          H       0.22233   0.07055   0.61660 
H          H       0.22233   0.92945   0.61660 
H          H       0.07013   0.14025   0.81776 
H          H       0.07013   0.85975   0.81776 
H          H       0.11669   0.22529   0.84135 
H          H       0.11669   0.77471   0.84135 
H          H       0.26908   0.15567   0.64544 
H          H       0.26908   0.84433   0.64544 
H          H       0.38113   0.27409   0.77224 
H          H       0.38113   0.72591   0.77224 
H          H       0.22962   0.34865   0.59706 
H          H       0.22962   0.65135   0.59706 
H          H       0.43118   0.35783   0.73755 
H          H       0.43118   0.64217   0.73755 
H          H       0.27874   0.43163   0.55674 
H          H       0.27874   0.56837   0.55674 
H          H       0.46033   0.58492   0.50784 
H          H       0.46033   0.41508   0.50784 
H          H       0.69666   0.78286   0.71642 
H          H       0.69666   0.21714   0.71642 
C          C       0.63956   0.50000   0.77730 
C          C       0.47146   0.50000   0.50389 
C          C       0.36280   0.50000   0.65619 
C          C       0.52996   0.50000   0.92343 
H          H       0.68070   0.50000   0.71661 
H          H       0.32223   0.50000   0.72097 
C          C       0.13956   0.00000   0.72267 
C          C       0.02996   0.00000   0.57655 
C          C       0.86280   0.00000   0.84379 
C          C       0.97146   0.00000   0.99610 
H          H       0.18071   0.00000   0.78337 
H          H       0.82223   0.00000   0.77901 
