data_crystal
 
_cell_length_a    18.81260
_cell_length_b    18.81260
_cell_length_c    3.40000
_cell_angle_alpha 90.00000
_cell_angle_beta  90.00000
_cell_angle_gamma 120.00000
 
_symmetry_space_group_name_Hall 'P 1'
_symmetry_space_group_name_H-M  'P 1'
 
loop_
_symmetry_equiv_pos_as_xyz
 'x,y,z' 
 
loop_
_atom_site_label
_atom_site_type_symbol
_atom_site_fract_x
_atom_site_fract_y
_atom_site_fract_z
_atom_site_charge
O          O       0.54733   0.45635   1.47059   0.0000000000
O          O       0.40902   0.45267   1.47059   0.0000000000
O          O       0.54365   0.59098   1.47059   0.0000000000
B          B       0.58860   0.54609   1.47059   0.0000000000
B          B       0.45749   0.41140   1.47059   0.0000000000
B          B       0.45391   0.54251   1.47059   0.0000000000
O          O       0.11934   0.87699   1.47027   0.0000000000
O          O       0.25765   0.88066   1.47057   0.0000000000
O          O       0.12301   0.74235   1.47042   0.0000000000
B          B       0.07806   0.78724   1.47027   0.0000000000
B          B       0.20918   0.92193   1.47042   0.0000000000
B          B       0.21276   0.79082   1.47057   0.0000000000
C          C       0.98727   0.74013   1.47027   0.0000000000
C          C       0.67939   0.59320   1.47046   0.0000000000
S          S       0.92476   0.62890   1.47041   0.0000000000
S          S       0.74190   0.70443   1.47026   0.0000000000
C          C       0.82715   0.62380   1.47025   0.0000000000
C          C       0.83951   0.70953   1.47017   0.0000000000
C          C       0.93051   0.77859   1.47024   0.0000000000
C          C       0.73616   0.55474   1.47041   0.0000000000
H          H       0.95273   0.84716   1.47030   0.0000000000
H          H       0.71393   0.48616   1.47051   0.0000000000
C          C       0.25987   0.74715   1.47027   0.0000000000
C          C       0.40679   0.58619   1.47046   0.0000000000
S          S       0.37110   0.79586   1.47041   0.0000000000
S          S       0.29557   0.53747   1.47026   0.0000000000
C          C       0.37620   0.70335   1.47025   0.0000000000
C          C       0.29047   0.62998   1.47017   0.0000000000
C          C       0.22141   0.65192   1.47024   0.0000000000
C          C       0.44526   0.68142   1.47041   0.0000000000
H          H       0.15284   0.60557   1.47030   0.0000000000
H          H       0.51384   0.72777   1.47051   0.0000000000
C          C       0.25285   0.01273   1.47027   0.0000000000
C          C       0.41381   0.32061   1.47046   0.0000000000
S          S       0.20414   0.07524   1.47041   0.0000000000
S          S       0.46253   0.25809   1.47026   0.0000000000
C          C       0.29665   0.17285   1.47025   0.0000000000
C          C       0.37001   0.16049   1.47017   0.0000000000
C          C       0.34808   0.06949   1.47024   0.0000000000
C          C       0.31858   0.26384   1.47042   0.0000000000
H          H       0.39443   0.04727   1.47030   0.0000000000
H          H       0.27223   0.28607   1.47051   0.0000000000
