data_T-COF_3
_audit_creation_date              0000-00-00
_audit_creation_method            'LanYouShi'
_symmetry_space_group_name_H-M    'P1'
_cell_length_a                    18.8125992
_cell_length_b                    18.8125992
_cell_length_c                    3.4000001
_cell_angle_alpha                 90.0000000
_cell_angle_beta                  90.0000000
_cell_angle_gamma                 120.0000000
loop_
_atom_site_label
_atom_site_type_symbol
_atom_site_fract_x
_atom_site_fract_y
_atom_site_fract_z
_atom_site_U_iso_or_equiv
_atom_site_adp_type
_atom_site_occupancy
        O1          O  0.5473320  0.4563501  1.4705882    0.00000       Uiso       1.00
        O2          O  0.4090179  0.4526674  1.4705882    0.00000       Uiso       1.00
        O3          O  0.5436493  0.5909816  1.4705882    0.00000       Uiso       1.00
        B1          B  0.5886017  0.5460939  1.4705882    0.00000       Uiso       1.00
        B2          B  0.4574920  0.4113978  1.4705883    0.00000       Uiso       1.00
        B3          B  0.4539056  0.5425075  1.4705882    0.00000       Uiso       1.00
        O4          O  0.1193369  0.8769851  1.4702672    0.00000       Uiso       1.00
        O5          O  0.2576486  0.8806626  1.4705698    0.00000       Uiso       1.00
        O6          O  0.1230144  0.7423509  1.4704231    0.00000       Uiso       1.00
        B4          B  0.0780646  0.7872412  1.4702742    0.00000       Uiso       1.00
        B5          B  0.2091770  0.9219349  1.4704173    0.00000       Uiso       1.00
        B6          B  0.2127583  0.7908225  1.4705689    0.00000       Uiso       1.00
        C1          C  0.9872736  0.7401261  1.4702688    0.00000       Uiso       1.00
        C2          C  0.6793924  0.5932047  1.4704583    0.00000       Uiso       1.00
        S1          S  0.9247606  0.6288989  1.4704113    0.00000       Uiso       1.00
        S2          S  0.7419047  0.7044323  1.4702570    0.00000       Uiso       1.00
        C3          C  0.8271502  0.6237967  1.4702481    0.00000       Uiso       1.00
        C4          C  0.8395134  0.7095287  1.4701661    0.00000       Uiso       1.00
        C5          C  0.9305051  0.7785895  1.4702427    0.00000       Uiso       1.00
        C6          C  0.7361593  0.5547352  1.4704143    0.00000       Uiso       1.00
        H1          H  0.9527342  0.8471623  1.4703003    0.00000       Uiso       1.00
        H2          H  0.7139308  0.4861626  1.4705093    0.00000       Uiso       1.00
        C7          C  0.2598735  0.7471473  1.4702688    0.00000       Uiso       1.00
        C8          C  0.4067947  0.5861874  1.4704583    0.00000       Uiso       1.00
        S3          S  0.3711007  0.7958615  1.4704115    0.00000       Uiso       1.00
        S4          S  0.2955672  0.5374722  1.4702569    0.00000       Uiso       1.00
        C9          C  0.3762028  0.7033532  1.4702481    0.00000       Uiso       1.00
       C10          C  0.2904708  0.6299844  1.4701661    0.00000       Uiso       1.00
       C11          C  0.2214099  0.6519153  1.4702426    0.00000       Uiso       1.00
       C12          C  0.4452642  0.6814237  1.4704144    0.00000       Uiso       1.00
        H3          H  0.1528372  0.6055717  1.4703001    0.00000       Uiso       1.00
        H4          H  0.5138369  0.7277680  1.4705094    0.00000       Uiso       1.00
       C13          C  0.2528521  0.0127258  1.4702709    0.00000       Uiso       1.00
       C14          C  0.4138121  0.3206071  1.4704589    0.00000       Uiso       1.00
        S5          S  0.2041379  0.0752388  1.4704132    0.00000       Uiso       1.00
        S6          S  0.4625272  0.2580947  1.4702579    0.00000       Uiso       1.00
       C15          C  0.2966462  0.1728492  1.4702492    0.00000       Uiso       1.00
       C16          C  0.3700150  0.1604861  1.4701673    0.00000       Uiso       1.00
       C17          C  0.3480842  0.0694943  1.4702444    0.00000       Uiso       1.00
       C18          C  0.3185757  0.2638402  1.4704151    0.00000       Uiso       1.00
        H5          H  0.3944277  0.0472652  1.4703020    0.00000       Uiso       1.00
        H6          H  0.2722314  0.2860686  1.4705101    0.00000       Uiso       1.00
