data_crystal
 
_cell_length_a    28.67410
_cell_length_b    23.63190
_cell_length_c    59.06800
_cell_angle_alpha 90.00000
_cell_angle_beta  89.18600
_cell_angle_gamma 90.00000
 
_symmetry_space_group_name_Hall 'P 1'
_symmetry_space_group_name_H-M  'P 1'
 
loop_
_symmetry_equiv_pos_as_xyz
 'x,y,z' 
 
loop_
_atom_site_label
_atom_site_type_symbol
_atom_site_fract_x
_atom_site_fract_y
_atom_site_fract_z
N          N       0.28432   0.50765   0.37147 
N          N       0.71568   0.00765   0.12853 
C          C       0.28375   0.44487   0.37138 
C          C       0.71625   0.94487   0.12862 
C          C       0.33068   0.52447   0.37359 
C          C       0.66932   0.02447   0.12641 
C          C       0.35742   0.47402   0.37525 
C          C       0.64258   0.97402   0.12475 
C          C       0.32866   0.42453   0.37451 
C          C       0.67134   0.92453   0.12549 
C          C       0.40738   0.47394   0.37792 
C          C       0.59262   0.97394   0.12208 
C          C       0.34584   0.58416   0.37337 
C          C       0.65416   0.08416   0.12663 
C          C       0.34252   0.36600   0.38021 
C          C       0.65748   0.86600   0.11979 
C          C       0.65974   0.41350   0.31279 
C          C       0.34026   0.91350   0.18721 
C          C       0.62678   0.41375   0.32910 
C          C       0.37322   0.91375   0.17089 
C          C       0.64889   0.41107   0.34986 
C          C       0.35111   0.91107   0.15015 
N          N       0.69457   0.40908   0.34687 
N          N       0.30543   0.90908   0.15313 
C          C       0.70101   0.41070   0.32407 
C          C       0.29899   0.91070   0.17593 
C          C       0.62621   0.41143   0.37096 
C          C       0.37379   0.91143   0.12904 
C          C       0.57592   0.41651   0.37089 
C          C       0.42408   0.91651   0.12911 
C          C       0.54858   0.36646   0.36791 
C          C       0.45142   0.86646   0.13209 
C          C       0.50121   0.37190   0.36776 
C          C       0.49879   0.87190   0.13224 
C          C       0.48059   0.42713   0.37079 
C          C       0.51941   0.92713   0.12921 
C          C       0.50829   0.47744   0.37348 
C          C       0.49171   0.97744   0.12652 
C          C       0.55557   0.47196   0.37362 
C          C       0.44443   0.97196   0.12638 
N          N       0.43179   0.43056   0.37018 
N          N       0.56821   0.93056   0.12982 
C          C       0.76938   0.31671   0.13220 
C          C       0.23062   0.81671   0.36780 
C          C       0.76681   0.25510   0.13187 
C          C       0.23319   0.75510   0.36813 
H          H       0.42321   0.51130   0.38611 
H          H       0.57679   0.01130   0.11389 
H          H       0.38334   0.58789   0.37262 
H          H       0.61666   0.08789   0.12738 
H          H       0.33361   0.60698   0.38889 
H          H       0.66639   0.10698   0.11110 
H          H       0.33197   0.60691   0.35818 
H          H       0.66803   0.10691   0.14182 
H          H       0.34858   0.33999   0.36453 
H          H       0.65142   0.83999   0.13547 
H          H       0.31699   0.34409   0.39120 
H          H       0.68301   0.84409   0.10880 
H          H       0.37423   0.36606   0.39037 
H          H       0.62577   0.86606   0.10963 
H          H       0.59057   0.41608   0.32600 
H          H       0.40943   0.91608   0.17400 
H          H       0.56395   0.32341   0.36565 
H          H       0.43605   0.82341   0.13435 
H          H       0.48043   0.33293   0.36538 
H          H       0.51957   0.83293   0.13462 
H          H       0.49392   0.52115   0.37503 
H          H       0.50608   0.02115   0.12497 
H          H       0.57641   0.51102   0.37568 
H          H       0.42359   0.01102   0.12432 
H          H       0.79770   0.33778   0.14071 
H          H       0.20230   0.83778   0.35929 
H          H       0.79273   0.22904   0.14022 
H          H       0.20727   0.72904   0.35979 
H          H       0.65392   0.41562   0.29465 
H          H       0.34608   0.91562   0.20535 
F          F       0.78903   0.57482   0.12076 
F          F       0.21097   0.07482   0.37924 
N          N       0.20032   0.50617   0.37275 
N          N       0.79968   0.00617   0.12725 
C          C       0.20091   0.44664   0.36993 
C          C       0.79909   0.94664   0.13007 
C          C       0.15650   0.52418   0.37277 
C          C       0.84350   0.02418   0.12723 
C          C       0.12811   0.47620   0.36924 
C          C       0.87189   0.97620   0.13076 
C          C       0.15600   0.42680   0.36684 
C          C       0.84400   0.92680   0.13315 
C          C       0.07805   0.47829   0.36758 
C          C       0.92195   0.97829   0.13242 
C          C       0.14185   0.58731   0.37624 
C          C       0.85815   0.08731   0.12376 
C          C       0.14027   0.36827   0.35756 
C          C       0.85973   0.86827   0.14244 
C          C       0.82576   0.41547   0.42963 
C          C       0.17424   0.91547   0.07037 
C          C       0.85873   0.41553   0.41332 
C          C       0.14127   0.91553   0.08668 
C          C       0.83660   0.41288   0.39258 
C          C       0.16340   0.91288   0.10743 
N          N       0.79093   0.41096   0.39555 
N          N       0.20907   0.91096   0.10445 
C          C       0.78450   0.41270   0.41836 
C          C       0.21550   0.91270   0.08164 
C          C       0.85930   0.41272   0.37147 
C          C       0.14070   0.91272   0.12853 
C          C       0.90956   0.41792   0.37155 
C          C       0.09044   0.91792   0.12845 
C          C       0.93698   0.36741   0.37050 
C          C       0.06302   0.86741   0.12949 
C          C       0.98433   0.37284   0.37060 
C          C       0.01567   0.87284   0.12940 
C          C       0.00489   0.42861   0.37155 
C          C       0.99511   0.92861   0.12845 
C          C       0.97713   0.47924   0.37292 
C          C       0.02287   0.97924   0.12708 
C          C       0.92984   0.47377   0.37282 
C          C       0.07016   0.97377   0.12718 
N          N       0.05371   0.43170   0.37181 
N          N       0.94629   0.93170   0.12819 
C          C       0.69987   0.32210   0.11010 
C          C       0.30013   0.82210   0.38990 
C          C       0.69745   0.26049   0.10988 
C          C       0.30255   0.76049   0.39012 
H          H       0.06209   0.51943   0.36293 
H          H       0.93791   0.01943   0.13707 
H          H       0.10445   0.59191   0.37723 
H          H       0.89555   0.09191   0.12276 
H          H       0.15440   0.61490   0.36197 
H          H       0.84560   0.11490   0.13803 
H          H       0.15618   0.60422   0.39241 
H          H       0.84382   0.10422   0.10759 
H          H       0.13205   0.33773   0.37171 
H          H       0.86795   0.83773   0.12829 
H          H       0.16613   0.34860   0.34615 
H          H       0.83387   0.84860   0.15385 
H          H       0.10952   0.37396   0.34690 
H          H       0.89048   0.87396   0.15310 
H          H       0.89496   0.41745   0.41642 
H          H       0.10504   0.91745   0.08358 
H          H       0.92167   0.32399   0.36963 
H          H       0.07833   0.82399   0.13037 
H          H       0.00517   0.33348   0.36980 
H          H       0.99483   0.83348   0.13020 
H          H       0.99145   0.52296   0.37447 
H          H       0.00855   0.02296   0.12553 
H          H       0.90894   0.51305   0.37387 
H          H       0.09106   0.01305   0.12613 
H          H       0.67355   0.34740   0.10168 
H          H       0.32645   0.84740   0.39831 
H          H       0.66965   0.23861   0.10128 
H          H       0.33035   0.73861   0.39872 
H          H       0.83159   0.41746   0.44777 
H          H       0.16841   0.91746   0.05223 
F          F       0.71055   0.58696   0.12326 
F          F       0.28945   0.08696   0.37674 
N          N       0.74030   0.50790   0.10068 
N          N       0.25970   0.00790   0.39932 
C          C       0.74114   0.44508   0.10068 
C          C       0.25886   0.94508   0.39931 
C          C       0.74364   0.52518   0.07748 
C          C       0.25636   0.02518   0.42252 
C          C       0.74724   0.42541   0.07811 
C          C       0.25276   0.92541   0.42189 
C          C       0.75037   0.47672   0.03882 
C          C       0.24963   0.97672   0.46118 
C          C       0.74337   0.58449   0.06950 
C          C       0.25663   0.08449   0.43051 
C          C       0.76038   0.36773   0.07089 
C          C       0.23962   0.86773   0.42912 
C          C       0.62579   0.40939   0.41280 
C          C       0.37421   0.90939   0.08719 
C          C       0.65838   0.40972   0.42926 
C          C       0.34162   0.90972   0.07074 
C          C       0.69993   0.41047   0.41816 
C          C       0.30007   0.91047   0.08184 
N          N       0.69406   0.41033   0.39531 
N          N       0.30594   0.91033   0.10469 
C          C       0.64843   0.40997   0.39214 
C          C       0.35157   0.90997   0.10786 
C          C       0.74207   0.41252   0.42948 
C          C       0.25793   0.91252   0.07052 
C          C       0.74171   0.41729   0.45462 
C          C       0.25829   0.91729   0.04538 
C          C       0.74554   0.36672   0.46820 
C          C       0.25446   0.86672   0.03180 
C          C       0.74544   0.37178   0.49189 
C          C       0.25456   0.87178   0.00812 
C          C       0.74199   0.42726   0.00229 
C          C       0.25801   0.92726   0.49771 
C          C       0.73740   0.47789   0.48855 
C          C       0.26260   0.97789   0.01145 
C          C       0.73745   0.47279   0.46490 
C          C       0.26255   0.97279   0.03511 
N          N       0.74192   0.43008   0.02670 
N          N       0.25808   0.93008   0.47330 
C          C       0.26242   0.32179   0.35050 
C          C       0.73758   0.82179   0.14950 
C          C       0.26144   0.26017   0.34936 
C          C       0.73856   0.76017   0.15064 
H          H       0.75890   0.51815   0.03078 
H          H       0.24110   0.01815   0.46921 
H          H       0.71477   0.59082   0.05744 
H          H       0.28523   0.09082   0.44256 
H          H       0.77593   0.59428   0.06071 
H          H       0.22407   0.09428   0.43928 
H          H       0.73920   0.61649   0.08359 
H          H       0.26080   0.11649   0.41641 
H          H       0.72990   0.34159   0.06623 
H          H       0.27010   0.84159   0.43377 
H          H       0.78048   0.34470   0.08407 
H          H       0.21952   0.84470   0.41593 
H          H       0.78346   0.36993   0.05600 
H          H       0.21654   0.86993   0.44401 
H          H       0.65211   0.40972   0.44740 
H          H       0.34789   0.90972   0.05260 
H          H       0.74862   0.32356   0.46043 
H          H       0.25138   0.82356   0.03957 
H          H       0.74843   0.33239   0.00220 
H          H       0.25157   0.83239   0.49779 
H          H       0.73301   0.52128   0.49585 
H          H       0.26699   0.02128   0.00415 
H          H       0.73400   0.51209   0.45455 
H          H       0.26600   0.01209   0.04545 
H          H       0.27904   0.34642   0.33706 
H          H       0.72096   0.84642   0.16294 
H          H       0.27742   0.23758   0.33525 
H          H       0.72258   0.73758   0.16476 
H          H       0.58946   0.40906   0.41575 
H          H       0.41054   0.90906   0.08425 
F          F       0.24100   0.58773   0.35606 
F          F       0.75900   0.08773   0.14394 
N          N       0.74527   0.50487   0.14264 
N          N       0.25473   0.00487   0.35736 
C          C       0.73937   0.44540   0.14211 
C          C       0.26063   0.94540   0.35789 
C          C       0.74617   0.52216   0.16462 
C          C       0.25383   0.02216   0.33538 
C          C       0.73922   0.47383   0.17865 
C          C       0.26078   0.97383   0.32135 
C          C       0.73367   0.42492   0.16453 
C          C       0.26633   0.92492   0.33547 
C          C       0.73624   0.47539   0.20370 
C          C       0.26376   0.97539   0.29630 
C          C       0.75363   0.58498   0.17219 
C          C       0.24637   0.08498   0.32781 
C          C       0.71448   0.36662   0.17229 
C          C       0.28552   0.86662   0.32771 
C          C       0.85976   0.40984   0.32964 
C          C       0.14024   0.90984   0.17036 
C          C       0.82718   0.40918   0.31317 
C          C       0.17282   0.90918   0.18682 
C          C       0.78561   0.40944   0.32428 
C          C       0.21439   0.90944   0.17572 
N          N       0.79148   0.40983   0.34712 
N          N       0.20852   0.90983   0.15288 
C          C       0.83711   0.41031   0.35029 
C          C       0.16289   0.91031   0.14971 
C          C       0.74345   0.41073   0.31295 
C          C       0.25655   0.91073   0.18705 
C          C       0.74381   0.41542   0.28780 
C          C       0.25619   0.91542   0.21220 
C          C       0.73848   0.36507   0.27422 
C          C       0.26152   0.86507   0.22578 
C          C       0.73866   0.37011   0.25052 
C          C       0.26134   0.87011   0.24948 
C          C       0.74369   0.42540   0.24012 
C          C       0.25631   0.92540   0.25988 
C          C       0.74980   0.47575   0.25386 
C          C       0.25020   0.97575   0.24614 
C          C       0.74964   0.47067   0.27751 
C          C       0.25036   0.97067   0.22249 
N          N       0.74391   0.42832   0.21571 
N          N       0.25609   0.92832   0.28429 
C          C       0.21981   0.31825   0.38582 
C          C       0.78019   0.81825   0.11417 
C          C       0.21904   0.25664   0.38461 
C          C       0.78096   0.75664   0.11539 
H          H       0.72774   0.51660   0.21187 
H          H       0.27226   0.01660   0.28813 
H          H       0.75665   0.58891   0.19087 
H          H       0.24335   0.08891   0.30913 
H          H       0.72483   0.61289   0.16649 
H          H       0.27517   0.11289   0.33351 
H          H       0.78567   0.60199   0.16468 
H          H       0.21433   0.10199   0.33532 
H          H       0.74247   0.33578   0.17658 
H          H       0.25753   0.83578   0.32342 
H          H       0.69190   0.34710   0.15926 
H          H       0.30810   0.84710   0.34074 
H          H       0.69277   0.37267   0.18754 
H          H       0.30723   0.87267   0.31246 
H          H       0.83345   0.40899   0.29505 
H          H       0.16655   0.90899   0.20495 
H          H       0.73418   0.32208   0.28199 
H          H       0.26582   0.82208   0.21801 
H          H       0.73451   0.33090   0.24021 
H          H       0.26549   0.83090   0.25979 
H          H       0.75549   0.51888   0.24655 
H          H       0.24451   0.01888   0.25345 
H          H       0.75427   0.50978   0.28785 
H          H       0.24573   0.00978   0.21215 
H          H       0.20375   0.34008   0.40012 
H          H       0.79625   0.84008   0.09988 
H          H       0.20235   0.23131   0.39781 
H          H       0.79765   0.73131   0.10219 
H          H       0.89608   0.41037   0.32669 
H          H       0.10392   0.91037   0.17332 
F          F       0.24330   0.57517   0.39531 
F          F       0.75670   0.07517   0.10469 
B          B       0.74649   0.54515   0.12184 
B          B       0.25351   0.04515   0.37816 
C          C       0.73856   0.41271   0.12136 
C          C       0.26144   0.91271   0.37864 
C          C       0.73586   0.35086   0.12131 
C          C       0.26414   0.85086   0.37870 
C          C       0.73089   0.22709   0.12073 
C          C       0.26911   0.72709   0.37927 
B          B       0.24225   0.54570   0.37399 
B          B       0.75775   0.04570   0.12601 
C          C       0.24211   0.41327   0.36984 
C          C       0.75789   0.91327   0.13017 
C          C       0.24151   0.35143   0.36874 
C          C       0.75849   0.85143   0.13126 
C          C       0.23975   0.22770   0.36638 
C          C       0.76025   0.72770   0.13362 
H          H       0.72898   0.17952   0.12048 
H          H       0.27102   0.67952   0.37952 
H          H       0.23891   0.18013   0.36544 
H          H       0.76109   0.68013   0.13456 
N          N       0.28432   0.50765   0.87147 
N          N       0.71568   0.00765   0.62853 
C          C       0.28375   0.44487   0.87138 
C          C       0.71625   0.94487   0.62862 
C          C       0.33068   0.52447   0.87359 
C          C       0.66932   0.02447   0.62641 
C          C       0.35742   0.47402   0.87525 
C          C       0.64258   0.97402   0.62475 
C          C       0.32866   0.42453   0.87451 
C          C       0.67134   0.92453   0.62549 
C          C       0.40738   0.47394   0.87792 
C          C       0.59262   0.97394   0.62208 
C          C       0.34584   0.58416   0.87337 
C          C       0.65416   0.08416   0.62663 
C          C       0.34252   0.36600   0.88020 
C          C       0.65748   0.86600   0.61980 
C          C       0.65974   0.41350   0.81279 
C          C       0.34026   0.91350   0.68721 
C          C       0.62678   0.41375   0.82910 
C          C       0.37322   0.91375   0.67090 
C          C       0.64889   0.41107   0.84986 
C          C       0.35111   0.91107   0.65014 
N          N       0.69457   0.40908   0.84687 
N          N       0.30543   0.90908   0.65313 
C          C       0.70101   0.41070   0.82407 
C          C       0.29899   0.91070   0.67593 
C          C       0.62621   0.41143   0.87096 
C          C       0.37379   0.91143   0.62904 
C          C       0.57592   0.41651   0.87089 
C          C       0.42408   0.91651   0.62911 
C          C       0.54858   0.36646   0.86791 
C          C       0.45142   0.86646   0.63209 
C          C       0.50121   0.37190   0.86776 
C          C       0.49879   0.87190   0.63224 
C          C       0.48059   0.42713   0.87079 
C          C       0.51941   0.92713   0.62921 
C          C       0.50829   0.47744   0.87348 
C          C       0.49171   0.97744   0.62652 
C          C       0.55557   0.47196   0.87362 
C          C       0.44443   0.97196   0.62638 
N          N       0.43179   0.43056   0.87018 
N          N       0.56821   0.93056   0.62982 
C          C       0.76938   0.31671   0.63219 
C          C       0.23062   0.81671   0.86781 
C          C       0.76681   0.25510   0.63187 
C          C       0.23319   0.75510   0.86813 
H          H       0.42321   0.51130   0.88611 
H          H       0.57679   0.01130   0.61389 
H          H       0.38334   0.58789   0.87262 
H          H       0.61666   0.08789   0.62738 
H          H       0.33361   0.60698   0.88890 
H          H       0.66639   0.10698   0.61110 
H          H       0.33197   0.60691   0.85818 
H          H       0.66803   0.10691   0.64182 
H          H       0.34858   0.33999   0.86453 
H          H       0.65142   0.83999   0.63547 
H          H       0.31699   0.34409   0.89120 
H          H       0.68301   0.84409   0.60880 
H          H       0.37423   0.36606   0.89037 
H          H       0.62577   0.86606   0.60963 
H          H       0.59057   0.41608   0.82600 
H          H       0.40943   0.91608   0.67400 
H          H       0.56395   0.32341   0.86565 
H          H       0.43605   0.82341   0.63435 
H          H       0.48043   0.33293   0.86538 
H          H       0.51957   0.83293   0.63462 
H          H       0.49392   0.52115   0.87503 
H          H       0.50608   0.02115   0.62497 
H          H       0.57641   0.51102   0.87568 
H          H       0.42359   0.01102   0.62432 
H          H       0.79770   0.33778   0.64071 
H          H       0.20230   0.83778   0.85929 
H          H       0.79273   0.22904   0.64022 
H          H       0.20727   0.72904   0.85978 
H          H       0.65392   0.41562   0.79465 
H          H       0.34608   0.91562   0.70535 
F          F       0.78903   0.57482   0.62076 
F          F       0.21097   0.07482   0.87924 
N          N       0.20032   0.50617   0.87275 
N          N       0.79968   0.00617   0.62725 
C          C       0.20091   0.44664   0.86993 
C          C       0.79909   0.94664   0.63007 
C          C       0.15650   0.52418   0.87277 
C          C       0.84350   0.02418   0.62723 
C          C       0.12811   0.47620   0.86925 
C          C       0.87189   0.97620   0.63075 
C          C       0.15600   0.42680   0.86684 
C          C       0.84400   0.92680   0.63316 
C          C       0.07805   0.47829   0.86758 
C          C       0.92195   0.97829   0.63242 
C          C       0.14185   0.58731   0.87624 
C          C       0.85815   0.08731   0.62376 
C          C       0.14027   0.36827   0.85755 
C          C       0.85973   0.86827   0.64245 
C          C       0.82576   0.41547   0.92963 
C          C       0.17424   0.91547   0.57037 
C          C       0.85873   0.41553   0.91332 
C          C       0.14127   0.91553   0.58668 
C          C       0.83660   0.41288   0.89258 
C          C       0.16340   0.91288   0.60742 
N          N       0.79093   0.41096   0.89555 
N          N       0.20907   0.91096   0.60445 
C          C       0.78450   0.41270   0.91836 
C          C       0.21550   0.91270   0.58165 
C          C       0.85930   0.41272   0.87147 
C          C       0.14070   0.91272   0.62853 
C          C       0.90956   0.41792   0.87155 
C          C       0.09044   0.91792   0.62845 
C          C       0.93698   0.36741   0.87050 
C          C       0.06302   0.86741   0.62950 
C          C       0.98433   0.37284   0.87060 
C          C       0.01567   0.87284   0.62940 
C          C       0.00489   0.42861   0.87155 
C          C       0.99511   0.92861   0.62845 
C          C       0.97713   0.47924   0.87292 
C          C       0.02287   0.97924   0.62708 
C          C       0.92984   0.47377   0.87282 
C          C       0.07016   0.97377   0.62718 
N          N       0.05371   0.43170   0.87181 
N          N       0.94629   0.93170   0.62819 
C          C       0.69987   0.32210   0.61010 
C          C       0.30013   0.82210   0.88990 
C          C       0.69745   0.26049   0.60988 
C          C       0.30255   0.76049   0.89012 
H          H       0.06209   0.51943   0.86293 
H          H       0.93791   0.01943   0.63707 
H          H       0.10445   0.59191   0.87723 
H          H       0.89555   0.09191   0.62277 
H          H       0.15440   0.61490   0.86197 
H          H       0.84560   0.11490   0.63803 
H          H       0.15618   0.60422   0.89241 
H          H       0.84382   0.10422   0.60759 
H          H       0.13205   0.33773   0.87171 
H          H       0.86795   0.83773   0.62829 
H          H       0.16613   0.34860   0.84615 
H          H       0.83387   0.84860   0.65385 
H          H       0.10952   0.37396   0.84690 
H          H       0.89048   0.87396   0.65310 
H          H       0.89496   0.41745   0.91642 
H          H       0.10504   0.91745   0.58358 
H          H       0.92167   0.32399   0.86964 
H          H       0.07833   0.82399   0.63036 
H          H       0.00517   0.33348   0.86980 
H          H       0.99483   0.83348   0.63020 
H          H       0.99145   0.52296   0.87447 
H          H       0.00855   0.02296   0.62553 
H          H       0.90894   0.51305   0.87387 
H          H       0.09106   0.01305   0.62613 
H          H       0.67355   0.34740   0.60169 
H          H       0.32645   0.84740   0.89831 
H          H       0.66965   0.23861   0.60128 
H          H       0.33035   0.73861   0.89872 
H          H       0.83159   0.41746   0.94778 
H          H       0.16841   0.91746   0.55222 
F          F       0.71055   0.58696   0.62326 
F          F       0.28945   0.08696   0.87674 
N          N       0.74030   0.50790   0.60068 
N          N       0.25970   0.00790   0.89932 
C          C       0.74114   0.44508   0.60069 
C          C       0.25886   0.94508   0.89931 
C          C       0.74364   0.52518   0.57748 
C          C       0.25636   0.02518   0.92252 
C          C       0.74724   0.42541   0.57812 
C          C       0.25276   0.92541   0.92188 
C          C       0.75037   0.47672   0.53882 
C          C       0.24963   0.97672   0.96118 
C          C       0.74337   0.58449   0.56949 
C          C       0.25663   0.08449   0.93051 
C          C       0.76038   0.36773   0.57088 
C          C       0.23962   0.86773   0.92912 
C          C       0.62579   0.40939   0.91280 
C          C       0.37421   0.90939   0.58720 
C          C       0.65838   0.40972   0.92926 
C          C       0.34162   0.90972   0.57073 
C          C       0.69993   0.41047   0.91816 
C          C       0.30007   0.91047   0.58184 
N          N       0.69406   0.41033   0.89531 
N          N       0.30594   0.91033   0.60468 
C          C       0.64843   0.40997   0.89214 
C          C       0.35157   0.90997   0.60786 
C          C       0.74207   0.41252   0.92948 
C          C       0.25793   0.91252   0.57052 
C          C       0.74171   0.41729   0.95462 
C          C       0.25829   0.91729   0.54538 
C          C       0.74554   0.36672   0.96820 
C          C       0.25446   0.86672   0.53180 
C          C       0.74544   0.37178   0.99188 
C          C       0.25456   0.87178   0.50811 
C          C       0.74199   0.42726   0.50229 
C          C       0.25801   0.92726   0.99771 
C          C       0.73740   0.47789   0.98855 
C          C       0.26260   0.97789   0.51145 
C          C       0.73745   0.47279   0.96490 
C          C       0.26255   0.97279   0.53510 
N          N       0.74192   0.43008   0.52670 
N          N       0.25808   0.93008   0.97330 
C          C       0.26242   0.32179   0.85049 
C          C       0.73758   0.82179   0.64951 
C          C       0.26144   0.26017   0.84936 
C          C       0.73856   0.76017   0.65064 
H          H       0.75890   0.51815   0.53079 
H          H       0.24110   0.01815   0.96921 
H          H       0.71477   0.59082   0.55744 
H          H       0.28523   0.09082   0.94256 
H          H       0.77593   0.59428   0.56071 
H          H       0.22407   0.09428   0.93929 
H          H       0.73920   0.61649   0.58359 
H          H       0.26080   0.11649   0.91641 
H          H       0.72990   0.34159   0.56623 
H          H       0.27010   0.84159   0.93377 
H          H       0.78048   0.34470   0.58408 
H          H       0.21952   0.84470   0.91592 
H          H       0.78346   0.36993   0.55600 
H          H       0.21654   0.86993   0.94400 
H          H       0.65211   0.40972   0.94740 
H          H       0.34789   0.90972   0.55260 
H          H       0.74862   0.32356   0.96043 
H          H       0.25138   0.82356   0.53957 
H          H       0.74843   0.33239   0.50221 
H          H       0.25157   0.83239   0.99779 
H          H       0.73301   0.52128   0.99585 
H          H       0.26699   0.02128   0.50415 
H          H       0.73400   0.51209   0.95455 
H          H       0.26600   0.01209   0.54545 
H          H       0.27904   0.34642   0.83706 
H          H       0.72096   0.84642   0.66294 
H          H       0.27742   0.23758   0.83524 
H          H       0.72258   0.73758   0.66476 
H          H       0.58946   0.40906   0.91575 
H          H       0.41054   0.90906   0.58425 
F          F       0.24100   0.58773   0.85606 
F          F       0.75900   0.08773   0.64394 
N          N       0.74527   0.50487   0.64263 
N          N       0.25473   0.00487   0.85737 
C          C       0.73937   0.44540   0.64211 
C          C       0.26063   0.94540   0.85789 
C          C       0.74617   0.52216   0.66462 
C          C       0.25383   0.02216   0.83538 
C          C       0.73922   0.47383   0.67865 
C          C       0.26078   0.97383   0.82135 
C          C       0.73367   0.42492   0.66453 
C          C       0.26633   0.92492   0.83547 
C          C       0.73624   0.47539   0.70370 
C          C       0.26376   0.97539   0.79630 
C          C       0.75363   0.58498   0.67219 
C          C       0.24637   0.08498   0.82781 
C          C       0.71448   0.36662   0.67229 
C          C       0.28552   0.86662   0.82771 
C          C       0.85976   0.40984   0.82964 
C          C       0.14024   0.90984   0.67036 
C          C       0.82718   0.40918   0.81317 
C          C       0.17282   0.90918   0.68682 
C          C       0.78561   0.40944   0.82427 
C          C       0.21439   0.90944   0.67573 
N          N       0.79148   0.40983   0.84712 
N          N       0.20852   0.90983   0.65288 
C          C       0.83711   0.41031   0.85030 
C          C       0.16289   0.91031   0.64970 
C          C       0.74345   0.41073   0.81295 
C          C       0.25655   0.91073   0.68705 
C          C       0.74381   0.41542   0.78780 
C          C       0.25619   0.91542   0.71220 
C          C       0.73848   0.36507   0.77422 
C          C       0.26152   0.86507   0.72578 
C          C       0.73866   0.37011   0.75052 
C          C       0.26134   0.87011   0.74948 
C          C       0.74369   0.42540   0.74012 
C          C       0.25631   0.92540   0.75988 
C          C       0.74980   0.47575   0.75386 
C          C       0.25020   0.97575   0.74614 
C          C       0.74964   0.47067   0.77751 
C          C       0.25036   0.97067   0.72249 
N          N       0.74391   0.42832   0.71571 
N          N       0.25609   0.92832   0.78429 
C          C       0.21981   0.31825   0.88582 
C          C       0.78019   0.81825   0.61418 
C          C       0.21904   0.25664   0.88462 
C          C       0.78096   0.75664   0.61538 
H          H       0.72774   0.51660   0.71187 
H          H       0.27226   0.01660   0.78813 
H          H       0.75665   0.58891   0.69087 
H          H       0.24335   0.08891   0.80913 
H          H       0.72483   0.61289   0.66649 
H          H       0.27517   0.11289   0.83351 
H          H       0.78567   0.60199   0.66468 
H          H       0.21433   0.10199   0.83532 
H          H       0.74247   0.33578   0.67658 
H          H       0.25753   0.83578   0.82342 
H          H       0.69190   0.34710   0.65926 
H          H       0.30810   0.84710   0.84074 
H          H       0.69277   0.37267   0.68754 
H          H       0.30723   0.87267   0.81246 
H          H       0.83345   0.40899   0.79505 
H          H       0.16655   0.90899   0.70495 
H          H       0.73418   0.32208   0.78199 
H          H       0.26582   0.82208   0.71801 
H          H       0.73451   0.33090   0.74021 
H          H       0.26549   0.83090   0.75979 
H          H       0.75549   0.51888   0.74655 
H          H       0.24451   0.01888   0.75345 
H          H       0.75427   0.50978   0.78785 
H          H       0.24573   0.00978   0.71215 
H          H       0.20375   0.34008   0.90012 
H          H       0.79625   0.84008   0.59988 
H          H       0.20235   0.23131   0.89781 
H          H       0.79765   0.73131   0.60220 
H          H       0.89608   0.41037   0.82669 
H          H       0.10392   0.91037   0.67331 
F          F       0.24330   0.57517   0.89531 
F          F       0.75670   0.07517   0.60468 
B          B       0.74649   0.54515   0.62184 
B          B       0.25351   0.04515   0.87816 
C          C       0.73856   0.41271   0.62136 
C          C       0.26144   0.91271   0.87864 
C          C       0.73586   0.35086   0.62130 
C          C       0.26414   0.85086   0.87870 
C          C       0.73089   0.22709   0.62073 
C          C       0.26911   0.72709   0.87927 
B          B       0.24225   0.54570   0.87399 
B          B       0.75775   0.04570   0.62601 
C          C       0.24211   0.41327   0.86984 
C          C       0.75789   0.91327   0.63016 
C          C       0.24151   0.35143   0.86874 
C          C       0.75849   0.85143   0.63126 
C          C       0.23975   0.22770   0.86638 
C          C       0.76025   0.72770   0.63362 
H          H       0.72898   0.17952   0.62048 
H          H       0.27102   0.67952   0.87952 
H          H       0.23891   0.18013   0.86544 
H          H       0.76109   0.68013   0.63457 
