data_crystal
 
_cell_length_a    21.85070
_cell_length_b    21.85070
_cell_length_c    7.16100
_cell_angle_alpha 90.00000
_cell_angle_beta  90.00000
_cell_angle_gamma 120.00000
 
_space_group_name_Hall 'P 1'
_space_group_name_H-M_alt  'P 1'
 
loop_
_symmetry_equiv_pos_as_xyz
 'x,y,z' 
 
loop_
_atom_site_label
_atom_site_type_symbol
_atom_site_fract_x
_atom_site_fract_y
_atom_site_fract_z
C          C       0.74263   0.36735   0.11700 
C          C       0.63265   0.37528   0.11700 
C          C       0.62472   0.25737   0.11700 
C          C       0.25737   0.63265   0.11700 
C          C       0.36735   0.62472   0.11700 
C          C       0.37528   0.74263   0.11700 
C          C       0.70892   0.41051   0.14302 
C          C       0.58949   0.29841   0.14302 
C          C       0.70159   0.29108   0.14302 
C          C       0.29108   0.58949   0.14302 
C          C       0.41051   0.70159   0.14302 
C          C       0.29841   0.70892   0.14302 
C          C       0.74531   0.47991   0.17696 
C          C       0.52009   0.26540   0.17696 
C          C       0.73460   0.25469   0.17696 
C          C       0.25469   0.52009   0.17696 
C          C       0.47991   0.73460   0.17696 
C          C       0.26540   0.74531   0.17696 
N          N       0.81390   0.51237   0.25872 
N          N       0.48763   0.30153   0.25872 
N          N       0.69847   0.18610   0.25872 
N          N       0.18610   0.48763   0.25872 
N          N       0.51237   0.69847   0.25872 
N          N       0.30153   0.81390   0.25872 
C          C       0.87311   0.57596   0.19673 
C          C       0.42404   0.29715   0.19673 
C          C       0.70285   0.12689   0.19673 
C          C       0.12689   0.42404   0.19673 
C          C       0.57596   0.70285   0.19673 
C          C       0.29715   0.87311   0.19673 
N          N       0.94212   0.59285   0.25854 
N          N       0.40715   0.34927   0.25854 
N          N       0.65073   0.05788   0.25854 
N          N       0.05788   0.40715   0.25854 
N          N       0.59285   0.65073   0.25854 
N          N       0.34927   0.94212   0.25854 
S          S       0.86267   0.63118   0.12210 
S          S       0.36882   0.23149   0.12210 
S          S       0.76851   0.13733   0.12210 
S          S       0.13733   0.36882   0.12210 
S          S       0.63118   0.76851   0.12210 
S          S       0.23149   0.86267   0.12210 
C          C       0.97026   0.54523   0.27782 
C          C       0.45477   0.42503   0.27782 
C          C       0.57497   0.02974   0.27782 
C          C       0.02974   0.45477   0.27782 
C          C       0.54523   0.57497   0.27782 
C          C       0.42503   0.97026   0.27782 
C          C       0.92803   0.47130   0.28788 
C          C       0.52870   0.45673   0.28788 
C          C       0.54327   0.07197   0.28788 
C          C       0.07197   0.52870   0.28788 
C          C       0.47130   0.54327   0.28788 
C          C       0.45673   0.92803   0.28788 
C          C       0.95670   0.42652   0.29889 
C          C       0.57348   0.53018   0.29889 
C          C       0.46982   0.04330   0.29889 
C          C       0.04330   0.57348   0.29889 
C          C       0.42652   0.46982   0.29889 
C          C       0.53018   0.95670   0.29889 
O          O       0.80238   0.39344   0.05658 
O          O       0.60656   0.40894   0.05658 
O          O       0.59106   0.19762   0.05658 
O          O       0.19762   0.60656   0.05658 
O          O       0.39344   0.59106   0.05658 
O          O       0.40894   0.80238   0.05658 
C          C       0.08971   0.64969   0.35447 
C          C       0.35031   0.44002   0.35447 
C          C       0.55998   0.91029   0.35447 
C          C       0.91029   0.35031   0.35447 
C          C       0.64969   0.55998   0.35447 
C          C       0.44002   0.08971   0.35447 
H          H       0.72046   0.51114   0.15781 
H          H       0.48886   0.20932   0.15781 
H          H       0.79068   0.27954   0.15781 
H          H       0.27954   0.48886   0.15781 
H          H       0.51114   0.79068   0.15781 
H          H       0.20932   0.72046   0.15781 
H          H       0.97713   0.64702   0.26776 
H          H       0.35298   0.33011   0.26776 
H          H       0.66989   0.02287   0.26776 
H          H       0.02287   0.35298   0.26776 
H          H       0.64702   0.66989   0.26776 
H          H       0.33011   0.97713   0.26776 
H          H       0.87297   0.44704   0.29794 
H          H       0.55296   0.42593   0.29794 
H          H       0.57407   0.12703   0.29794 
H          H       0.12703   0.55296   0.29794 
H          H       0.44704   0.57407   0.29794 
H          H       0.42593   0.87297   0.29794 
H          H       0.81842   0.49472   0.38904 
H          H       0.50528   0.32370   0.38904 
H          H       0.67630   0.18158   0.38904 
H          H       0.18158   0.50528   0.38904 
H          H       0.49472   0.67630   0.38904 
H          H       0.32370   0.81842   0.38904 
H          H       0.09842   0.68728   0.24180 
H          H       0.31272   0.41114   0.24180 
H          H       0.58886   0.90158   0.24180 
H          H       0.90158   0.31272   0.24180 
H          H       0.68728   0.58886   0.24180 
H          H       0.41114   0.09842   0.24180 
H          H       0.14154   0.66018   0.40626 
H          H       0.33982   0.48136   0.40626 
H          H       0.51864   0.85846   0.40626 
H          H       0.85846   0.33982   0.40626 
H          H       0.66018   0.51864   0.40626 
H          H       0.48136   0.14154   0.40626 
H          H       0.06322   0.66206   0.46659 
H          H       0.33794   0.40116   0.46659 
H          H       0.59884   0.93678   0.46659 
H          H       0.93678   0.33794   0.46659 
H          H       0.66206   0.59884   0.46659 
H          H       0.40116   0.06322   0.46659 
C          C       0.74263   0.36735   0.61700 
C          C       0.63265   0.37528   0.61700 
C          C       0.62472   0.25737   0.61700 
C          C       0.25737   0.63265   0.61700 
C          C       0.36735   0.62472   0.61700 
C          C       0.37528   0.74263   0.61700 
C          C       0.70892   0.41051   0.64302 
C          C       0.58949   0.29841   0.64302 
C          C       0.70159   0.29108   0.64302 
C          C       0.29108   0.58949   0.64302 
C          C       0.41051   0.70159   0.64302 
C          C       0.29841   0.70892   0.64302 
C          C       0.74531   0.47991   0.67695 
C          C       0.52009   0.26540   0.67695 
C          C       0.73460   0.25469   0.67695 
C          C       0.25469   0.52009   0.67695 
C          C       0.47991   0.73460   0.67695 
C          C       0.26540   0.74531   0.67695 
N          N       0.81390   0.51237   0.75872 
N          N       0.48763   0.30153   0.75872 
N          N       0.69847   0.18610   0.75872 
N          N       0.18610   0.48763   0.75872 
N          N       0.51237   0.69847   0.75872 
N          N       0.30153   0.81390   0.75872 
C          C       0.87311   0.57596   0.69673 
C          C       0.42404   0.29715   0.69673 
C          C       0.70285   0.12689   0.69673 
C          C       0.12689   0.42404   0.69673 
C          C       0.57596   0.70285   0.69673 
C          C       0.29715   0.87311   0.69673 
N          N       0.94212   0.59285   0.75853 
N          N       0.40715   0.34927   0.75853 
N          N       0.65073   0.05788   0.75853 
N          N       0.05788   0.40715   0.75853 
N          N       0.59285   0.65073   0.75853 
N          N       0.34927   0.94212   0.75853 
S          S       0.86267   0.63118   0.62210 
S          S       0.36882   0.23149   0.62210 
S          S       0.76851   0.13733   0.62210 
S          S       0.13733   0.36882   0.62210 
S          S       0.63118   0.76851   0.62210 
S          S       0.23149   0.86267   0.62210 
C          C       0.97026   0.54523   0.77782 
C          C       0.45477   0.42503   0.77782 
C          C       0.57497   0.02974   0.77782 
C          C       0.02974   0.45477   0.77782 
C          C       0.54523   0.57497   0.77782 
C          C       0.42503   0.97026   0.77782 
C          C       0.92803   0.47130   0.78788 
C          C       0.52870   0.45673   0.78788 
C          C       0.54327   0.07197   0.78788 
C          C       0.07197   0.52870   0.78788 
C          C       0.47130   0.54327   0.78788 
C          C       0.45673   0.92803   0.78788 
C          C       0.95670   0.42652   0.79888 
C          C       0.57348   0.53018   0.79888 
C          C       0.46982   0.04330   0.79888 
C          C       0.04330   0.57348   0.79888 
C          C       0.42652   0.46982   0.79888 
C          C       0.53018   0.95670   0.79888 
O          O       0.80238   0.39344   0.55657 
O          O       0.60656   0.40894   0.55657 
O          O       0.59106   0.19762   0.55657 
O          O       0.19762   0.60656   0.55657 
O          O       0.39344   0.59106   0.55657 
O          O       0.40894   0.80238   0.55657 
C          C       0.08971   0.64969   0.85447 
C          C       0.35031   0.44002   0.85447 
C          C       0.55998   0.91029   0.85447 
C          C       0.91029   0.35031   0.85447 
C          C       0.64969   0.55998   0.85447 
C          C       0.44002   0.08971   0.85447 
H          H       0.72046   0.51114   0.65781 
H          H       0.48886   0.20932   0.65781 
H          H       0.79068   0.27954   0.65781 
H          H       0.27954   0.48886   0.65781 
H          H       0.51114   0.79068   0.65781 
H          H       0.20932   0.72046   0.65781 
H          H       0.97713   0.64702   0.76776 
H          H       0.35298   0.33011   0.76776 
H          H       0.66989   0.02287   0.76776 
H          H       0.02287   0.35298   0.76776 
H          H       0.64702   0.66989   0.76776 
H          H       0.33011   0.97713   0.76776 
H          H       0.87297   0.44704   0.79794 
H          H       0.55296   0.42593   0.79794 
H          H       0.57407   0.12703   0.79794 
H          H       0.12703   0.55296   0.79794 
H          H       0.44704   0.57407   0.79794 
H          H       0.42593   0.87297   0.79794 
H          H       0.81842   0.49472   0.88904 
H          H       0.50528   0.32370   0.88904 
H          H       0.67630   0.18158   0.88904 
H          H       0.18158   0.50528   0.88904 
H          H       0.49472   0.67630   0.88904 
H          H       0.32370   0.81842   0.88904 
H          H       0.09842   0.68728   0.74179 
H          H       0.31272   0.41114   0.74179 
H          H       0.58886   0.90158   0.74179 
H          H       0.90158   0.31272   0.74179 
H          H       0.68728   0.58886   0.74179 
H          H       0.41114   0.09842   0.74179 
H          H       0.14154   0.66018   0.90626 
H          H       0.33982   0.48136   0.90626 
H          H       0.51864   0.85846   0.90626 
H          H       0.85846   0.33982   0.90626 
H          H       0.66018   0.51864   0.90626 
H          H       0.48136   0.14154   0.90626 
H          H       0.06322   0.66206   0.96659 
H          H       0.33794   0.40116   0.96659 
H          H       0.59884   0.93678   0.96659 
H          H       0.93678   0.33794   0.96659 
H          H       0.66206   0.59884   0.96659 
H          H       0.40116   0.06322   0.96659 
