data_crystal
 
_cell_length_a    28.63670
_cell_length_b    28.63670
_cell_length_c    7.24780
_cell_angle_alpha 90.00000
_cell_angle_beta  90.00000
_cell_angle_gamma 120.00000
 
_symmetry_space_group_name_Hall 'P 1'
_symmetry_space_group_name_H-M  'P 1'
 
loop_
_symmetry_equiv_pos_as_xyz
 'x,y,z' 
 
loop_
_atom_site_label
_atom_site_type_symbol
_atom_site_fract_x
_atom_site_fract_y
_atom_site_fract_z
C          C       0.63179   0.35731   0.27874 
C          C       0.64269   0.27448   0.27874 
C          C       0.72552   0.36821   0.27874 
C          C       0.36821   0.64269   0.27874 
C          C       0.35731   0.72552   0.27874 
C          C       0.27448   0.63179   0.27874 
C          C       0.69091   0.39303   0.30147 
C          C       0.60697   0.29788   0.30147 
C          C       0.70212   0.30909   0.30147 
C          C       0.30909   0.60697   0.30147 
C          C       0.39303   0.70212   0.30147 
C          C       0.29788   0.69091   0.30147 
C          C       0.71648   0.44679   0.33335 
C          C       0.55321   0.26969   0.33335 
C          C       0.73031   0.28352   0.33335 
C          C       0.28352   0.55321   0.33335 
C          C       0.44679   0.73031   0.33335 
C          C       0.26969   0.71648   0.33335 
N          N       0.69379   0.48215   0.32286 
N          N       0.51785   0.21164   0.32286 
N          N       0.78836   0.30621   0.32286 
N          N       0.30621   0.51785   0.32286 
N          N       0.48215   0.78836   0.32286 
N          N       0.21164   0.69379   0.32286 
C          C       0.72288   0.53427   0.23166 
C          C       0.46573   0.18861   0.23166 
C          C       0.81139   0.27712   0.23166 
C          C       0.27712   0.46573   0.23166 
C          C       0.53427   0.81139   0.23166 
C          C       0.18861   0.72288   0.23166 
N          N       0.69826   0.56714   0.20834 
N          N       0.43286   0.13112   0.20834 
N          N       0.86888   0.30174   0.20834 
N          N       0.30174   0.43286   0.20834 
N          N       0.56714   0.86888   0.20834 
N          N       0.13112   0.69826   0.20834 
S          S       0.77942   0.55786   0.18713 
S          S       0.44214   0.22156   0.18713 
S          S       0.77844   0.22058   0.18713 
S          S       0.22058   0.44214   0.18713 
S          S       0.55786   0.77844   0.18713 
S          S       0.22156   0.77942   0.18713 
C          C       0.64126   0.54701   0.20614 
C          C       0.45299   0.09425   0.20614 
C          C       0.90575   0.35874   0.20614 
C          C       0.35874   0.45299   0.20614 
C          C       0.54701   0.90575   0.20614 
C          C       0.09425   0.64126   0.20614 
C          C       0.60647   0.49546   0.14194 
C          C       0.50454   0.11101   0.14194 
C          C       0.88899   0.39353   0.14194 
C          C       0.39353   0.50454   0.14194 
C          C       0.49546   0.88899   0.14194 
C          C       0.11101   0.60647   0.14194 
C          C       0.55091   0.47646   0.12452 
C          C       0.52354   0.07445   0.12452 
C          C       0.92555   0.44909   0.12452 
C          C       0.44909   0.52354   0.12452 
C          C       0.47646   0.92555   0.12452 
C          C       0.07445   0.55091   0.12452 
C          C       0.52958   0.51006   0.17186 
C          C       0.48994   0.01952   0.17186 
C          C       0.98048   0.47042   0.17186 
C          C       0.47042   0.48994   0.17186 
C          C       0.51006   0.98048   0.17186 
C          C       0.01952   0.52958   0.17186 
C          C       0.56495   0.56219   0.23680 
C          C       0.43781   0.00276   0.23680 
C          C       0.99724   0.43505   0.23680 
C          C       0.43505   0.43781   0.23680 
C          C       0.56219   0.99724   0.23680 
C          C       0.00276   0.56495   0.23680 
C          C       0.62033   0.58092   0.25457 
C          C       0.41908   0.03941   0.25457 
C          C       0.96059   0.37967   0.25457 
C          C       0.37967   0.41908   0.25457 
C          C       0.58092   0.96059   0.25457 
C          C       0.03941   0.62033   0.25457 
O          O       0.60284   0.37494   0.22741 
O          O       0.62506   0.22790   0.22741 
O          O       0.77210   0.39716   0.22741 
O          O       0.39716   0.62506   0.22741 
O          O       0.37494   0.77210   0.22741 
O          O       0.22790   0.60284   0.22741 
H          H       0.75931   0.46589   0.35745 
H          H       0.53411   0.29342   0.35745 
H          H       0.70658   0.24069   0.35745 
H          H       0.24069   0.53411   0.35745 
H          H       0.46589   0.70658   0.35745 
H          H       0.29342   0.75931   0.35745 
H          H       0.65579   0.47019   0.37955 
H          H       0.52981   0.18560   0.37955 
H          H       0.81440   0.34421   0.37955 
H          H       0.34421   0.52981   0.37955 
H          H       0.47019   0.81440   0.37955 
H          H       0.18560   0.65579   0.37955 
H          H       0.72365   0.60720   0.17594 
H          H       0.39280   0.11645   0.17594 
H          H       0.88355   0.27635   0.17594 
H          H       0.27635   0.39280   0.17594 
H          H       0.60720   0.88355   0.17594 
H          H       0.11645   0.72365   0.17594 
H          H       0.62658   0.46879   0.11936 
H          H       0.53121   0.15779   0.11936 
H          H       0.84221   0.37342   0.11936 
H          H       0.37342   0.53121   0.11936 
H          H       0.46879   0.84221   0.11936 
H          H       0.15779   0.62658   0.11936 
H          H       0.52514   0.43554   0.07580 
H          H       0.56446   0.08960   0.07580 
H          H       0.91040   0.47486   0.07580 
H          H       0.47486   0.56446   0.07580 
H          H       0.43554   0.91040   0.07580 
H          H       0.08960   0.52514   0.07580 
H          H       0.54894   0.58760   0.28013 
H          H       0.41240   0.96134   0.28013 
H          H       0.03866   0.45106   0.28013 
H          H       0.45106   0.41240   0.28013 
H          H       0.58760   0.03866   0.28013 
H          H       0.96134   0.54894   0.28013 
C          C       0.65631   0.63648   0.33126 
C          C       0.36352   0.01983   0.33126 
C          C       0.98017   0.34369   0.33126 
C          C       0.34369   0.36352   0.33126 
C          C       0.63648   0.98017   0.33126 
C          C       0.01983   0.65631   0.33126 
H          H       0.63253   0.65181   0.40387 
H          H       0.34819   0.98072   0.40387 
H          H       0.01928   0.36747   0.40387 
H          H       0.36747   0.34819   0.40387 
H          H       0.65181   0.01928   0.40387 
H          H       0.98072   0.63253   0.40387 
H          H       0.67979   0.66487   0.21990 
H          H       0.33513   0.01492   0.21990 
H          H       0.98508   0.32021   0.21990 
H          H       0.32021   0.33513   0.21990 
H          H       0.66487   0.98508   0.21990 
H          H       0.01492   0.67979   0.21990 
H          H       0.68470   0.63448   0.43000 
H          H       0.36552   0.05022   0.43000 
H          H       0.94978   0.31530   0.43000 
H          H       0.31530   0.36552   0.43000 
H          H       0.63448   0.94978   0.43000 
H          H       0.05022   0.68470   0.43000 
C          C       0.63179   0.35731   0.77873 
C          C       0.64269   0.27448   0.77873 
C          C       0.72552   0.36821   0.77873 
C          C       0.36821   0.64269   0.77873 
C          C       0.35731   0.72552   0.77873 
C          C       0.27448   0.63179   0.77873 
C          C       0.69091   0.39303   0.80147 
C          C       0.60697   0.29788   0.80147 
C          C       0.70212   0.30909   0.80147 
C          C       0.30909   0.60697   0.80147 
C          C       0.39303   0.70212   0.80147 
C          C       0.29788   0.69091   0.80147 
C          C       0.71648   0.44679   0.83335 
C          C       0.55321   0.26969   0.83335 
C          C       0.73031   0.28352   0.83335 
C          C       0.28352   0.55321   0.83335 
C          C       0.44679   0.73031   0.83335 
C          C       0.26969   0.71648   0.83335 
N          N       0.69379   0.48215   0.82286 
N          N       0.51785   0.21164   0.82286 
N          N       0.78836   0.30621   0.82286 
N          N       0.30621   0.51785   0.82286 
N          N       0.48215   0.78836   0.82286 
N          N       0.21164   0.69379   0.82286 
C          C       0.72288   0.53427   0.73166 
C          C       0.46573   0.18861   0.73166 
C          C       0.81139   0.27712   0.73166 
C          C       0.27712   0.46573   0.73166 
C          C       0.53427   0.81139   0.73166 
C          C       0.18861   0.72288   0.73166 
N          N       0.69826   0.56714   0.70834 
N          N       0.43286   0.13112   0.70834 
N          N       0.86888   0.30174   0.70834 
N          N       0.30174   0.43286   0.70834 
N          N       0.56714   0.86888   0.70834 
N          N       0.13112   0.69826   0.70834 
S          S       0.77942   0.55786   0.68712 
S          S       0.44214   0.22156   0.68712 
S          S       0.77844   0.22058   0.68712 
S          S       0.22058   0.44214   0.68712 
S          S       0.55786   0.77844   0.68712 
S          S       0.22156   0.77942   0.68712 
C          C       0.64126   0.54701   0.70614 
C          C       0.45299   0.09425   0.70614 
C          C       0.90575   0.35874   0.70614 
C          C       0.35874   0.45299   0.70614 
C          C       0.54701   0.90575   0.70614 
C          C       0.09425   0.64126   0.70614 
C          C       0.60647   0.49546   0.64194 
C          C       0.50454   0.11101   0.64194 
C          C       0.88899   0.39353   0.64194 
C          C       0.39353   0.50454   0.64194 
C          C       0.49546   0.88899   0.64194 
C          C       0.11101   0.60647   0.64194 
C          C       0.55091   0.47646   0.62452 
C          C       0.52354   0.07445   0.62452 
C          C       0.92555   0.44909   0.62452 
C          C       0.44909   0.52354   0.62452 
C          C       0.47646   0.92555   0.62452 
C          C       0.07445   0.55091   0.62452 
C          C       0.52958   0.51006   0.67185 
C          C       0.48994   0.01952   0.67185 
C          C       0.98048   0.47042   0.67185 
C          C       0.47042   0.48994   0.67185 
C          C       0.51006   0.98048   0.67185 
C          C       0.01952   0.52958   0.67185 
C          C       0.56495   0.56219   0.73679 
C          C       0.43781   0.00276   0.73679 
C          C       0.99724   0.43505   0.73679 
C          C       0.43505   0.43781   0.73679 
C          C       0.56219   0.99724   0.73679 
C          C       0.00276   0.56495   0.73679 
C          C       0.62033   0.58092   0.75457 
C          C       0.41908   0.03941   0.75457 
C          C       0.96059   0.37967   0.75457 
C          C       0.37967   0.41908   0.75457 
C          C       0.58092   0.96059   0.75457 
C          C       0.03941   0.62033   0.75457 
O          O       0.60284   0.37494   0.72741 
O          O       0.62506   0.22790   0.72741 
O          O       0.77210   0.39716   0.72741 
O          O       0.39716   0.62506   0.72741 
O          O       0.37494   0.77210   0.72741 
O          O       0.22790   0.60284   0.72741 
H          H       0.75931   0.46589   0.85745 
H          H       0.53411   0.29342   0.85745 
H          H       0.70658   0.24069   0.85745 
H          H       0.24069   0.53411   0.85745 
H          H       0.46589   0.70658   0.85745 
H          H       0.29342   0.75931   0.85745 
H          H       0.65579   0.47019   0.87955 
H          H       0.52981   0.18560   0.87955 
H          H       0.81440   0.34421   0.87955 
H          H       0.34421   0.52981   0.87955 
H          H       0.47019   0.81440   0.87955 
H          H       0.18560   0.65579   0.87955 
H          H       0.72365   0.60720   0.67594 
H          H       0.39280   0.11645   0.67594 
H          H       0.88355   0.27635   0.67594 
H          H       0.27635   0.39280   0.67594 
H          H       0.60720   0.88355   0.67594 
H          H       0.11645   0.72365   0.67594 
H          H       0.62658   0.46879   0.61935 
H          H       0.53121   0.15779   0.61935 
H          H       0.84221   0.37342   0.61935 
H          H       0.37342   0.53121   0.61935 
H          H       0.46879   0.84221   0.61935 
H          H       0.15779   0.62658   0.61935 
H          H       0.52514   0.43554   0.57580 
H          H       0.56446   0.08960   0.57580 
H          H       0.91040   0.47486   0.57580 
H          H       0.47486   0.56446   0.57580 
H          H       0.43554   0.91040   0.57580 
H          H       0.08960   0.52514   0.57580 
H          H       0.54894   0.58760   0.78012 
H          H       0.41240   0.96134   0.78012 
H          H       0.03866   0.45106   0.78012 
H          H       0.45106   0.41240   0.78012 
H          H       0.58760   0.03866   0.78012 
H          H       0.96134   0.54894   0.78012 
C          C       0.65631   0.63648   0.83126 
C          C       0.36352   0.01983   0.83126 
C          C       0.98017   0.34369   0.83126 
C          C       0.34369   0.36352   0.83126 
C          C       0.63648   0.98017   0.83126 
C          C       0.01983   0.65631   0.83126 
H          H       0.63253   0.65181   0.90387 
H          H       0.34819   0.98072   0.90387 
H          H       0.01928   0.36747   0.90387 
H          H       0.36747   0.34819   0.90387 
H          H       0.65181   0.01928   0.90387 
H          H       0.98072   0.63253   0.90387 
H          H       0.67979   0.66487   0.71991 
H          H       0.33513   0.01492   0.71991 
H          H       0.98508   0.32021   0.71991 
H          H       0.32021   0.33513   0.71991 
H          H       0.66487   0.98508   0.71991 
H          H       0.01492   0.67979   0.71991 
H          H       0.68470   0.63448   0.93000 
H          H       0.36552   0.05022   0.93000 
H          H       0.94978   0.31530   0.93000 
H          H       0.31530   0.36552   0.93000 
H          H       0.63448   0.94978   0.93000 
H          H       0.05022   0.68470   0.93000 
