data_crystal
 
_cell_length_a    21.76210
_cell_length_b    21.76210
_cell_length_c    6.97080
_cell_angle_alpha 90.00000
_cell_angle_beta  90.00000
_cell_angle_gamma 120.00000
 
_symmetry_space_group_name_Hall 'P 1'
_symmetry_space_group_name_H-M  'P 1'
 
loop_
_symmetry_equiv_pos_as_xyz
 'x,y,z' 
 
loop_
_atom_site_label
_atom_site_type_symbol
_atom_site_fract_x
_atom_site_fract_y
_atom_site_fract_z
C          C       0.74257   0.36081   0.25000 
C          C       0.63919   0.38176   0.25000 
C          C       0.61824   0.25743   0.25000 
C          C       0.25743   0.63919   0.25000 
C          C       0.36081   0.61824   0.25000 
C          C       0.38176   0.74257   0.25000 
C          C       0.71546   0.41091   0.25000 
C          C       0.58909   0.30455   0.25000 
C          C       0.69545   0.28454   0.25000 
C          C       0.28454   0.58909   0.25000 
C          C       0.41091   0.69545   0.25000 
C          C       0.30455   0.71546   0.25000 
C          C       0.75692   0.48190   0.25000 
C          C       0.51810   0.27502   0.25000 
C          C       0.72498   0.24308   0.25000 
C          C       0.24308   0.51810   0.25000 
C          C       0.48190   0.72498   0.25000 
C          C       0.27502   0.75692   0.25000 
N          N       0.83166   0.51410   0.25000 
N          N       0.48590   0.31756   0.25000 
N          N       0.68244   0.16834   0.25000 
N          N       0.16834   0.48590   0.25000 
N          N       0.51410   0.68244   0.25000 
N          N       0.31756   0.83166   0.25000 
C          C       0.88517   0.58719   0.25000 
C          C       0.41281   0.29798   0.25000 
C          C       0.70202   0.11483   0.25000 
C          C       0.11483   0.41281   0.25000 
C          C       0.58719   0.70202   0.25000 
C          C       0.29798   0.88517   0.25000 
N          N       0.95808   0.60494   0.25000 
N          N       0.39506   0.35314   0.25000 
N          N       0.64686   0.04192   0.25000 
N          N       0.04192   0.39506   0.25000 
N          N       0.60494   0.64686   0.25000 
N          N       0.35314   0.95808   0.25000 
S          S       0.86743   0.64240   0.25000 
S          S       0.35760   0.22503   0.25000 
S          S       0.77497   0.13257   0.25000 
S          S       0.13257   0.35760   0.25000 
S          S       0.64240   0.77497   0.25000 
S          S       0.22503   0.86743   0.25000 
C          C       0.98005   0.55261   0.25000 
C          C       0.44739   0.42744   0.25000 
C          C       0.57256   0.01995   0.25000 
C          C       0.01995   0.44739   0.25000 
C          C       0.55261   0.57256   0.25000 
C          C       0.42744   0.98005   0.25000 
C          C       0.93143   0.48020   0.25000 
C          C       0.51980   0.45123   0.25000 
C          C       0.54877   0.06857   0.25000 
C          C       0.06857   0.51980   0.25000 
C          C       0.48020   0.54877   0.25000 
C          C       0.45123   0.93143   0.25000 
C          C       0.95032   0.42766   0.25000 
C          C       0.57234   0.52266   0.25000 
C          C       0.47734   0.04968   0.25000 
C          C       0.04968   0.57234   0.25000 
C          C       0.42766   0.47734   0.25000 
C          C       0.52266   0.95032   0.25000 
O          O       0.80515   0.38202   0.25000 
O          O       0.61798   0.42313   0.25000 
O          O       0.57687   0.19485   0.25000 
O          O       0.19485   0.61798   0.25000 
O          O       0.38202   0.57687   0.25000 
O          O       0.42313   0.80515   0.25000 
H          H       0.73188   0.51706   0.25000 
H          H       0.48294   0.21482   0.25000 
H          H       0.78518   0.26812   0.25000 
H          H       0.26812   0.48294   0.25000 
H          H       0.51706   0.78518   0.25000 
H          H       0.21482   0.73188   0.25000 
H          H       0.85695   0.48069   0.25000 
H          H       0.51931   0.37626   0.25000 
H          H       0.62374   0.14305   0.25000 
H          H       0.14305   0.51931   0.25000 
H          H       0.48069   0.62374   0.25000 
H          H       0.37626   0.85695   0.25000 
H          H       0.00081   0.66141   0.25000 
H          H       0.33859   0.33940   0.25000 
H          H       0.66060   0.99919   0.25000 
H          H       0.99919   0.33859   0.25000 
H          H       0.66141   0.66060   0.25000 
H          H       0.33940   0.00081   0.25000 
H          H       0.87209   0.46070   0.25000 
H          H       0.53930   0.41139   0.25000 
H          H       0.58861   0.12791   0.25000 
H          H       0.12791   0.53930   0.25000 
H          H       0.46070   0.58861   0.25000 
H          H       0.41139   0.87209   0.25000 
H          H       0.90738   0.36929   0.25000 
H          H       0.63071   0.53809   0.25000 
H          H       0.46191   0.09262   0.25000 
H          H       0.09262   0.63071   0.25000 
H          H       0.36929   0.46191   0.25000 
H          H       0.53809   0.90738   0.25000 
C          C       0.74257   0.36081   0.75000 
C          C       0.63919   0.38176   0.75000 
C          C       0.61824   0.25743   0.75000 
C          C       0.25743   0.63919   0.75000 
C          C       0.36081   0.61824   0.75000 
C          C       0.38176   0.74257   0.75000 
C          C       0.71546   0.41091   0.75000 
C          C       0.58909   0.30455   0.75000 
C          C       0.69545   0.28454   0.75000 
C          C       0.28454   0.58909   0.75000 
C          C       0.41091   0.69545   0.75000 
C          C       0.30455   0.71546   0.75000 
C          C       0.75692   0.48190   0.75000 
C          C       0.51810   0.27502   0.75000 
C          C       0.72498   0.24308   0.75000 
C          C       0.24308   0.51810   0.75000 
C          C       0.48190   0.72498   0.75000 
C          C       0.27502   0.75692   0.75000 
N          N       0.83166   0.51410   0.75000 
N          N       0.48590   0.31756   0.75000 
N          N       0.68244   0.16834   0.75000 
N          N       0.16834   0.48590   0.75000 
N          N       0.51410   0.68244   0.75000 
N          N       0.31756   0.83166   0.75000 
C          C       0.88517   0.58719   0.75000 
C          C       0.41281   0.29798   0.75000 
C          C       0.70202   0.11483   0.75000 
C          C       0.11483   0.41281   0.75000 
C          C       0.58719   0.70202   0.75000 
C          C       0.29798   0.88517   0.75000 
N          N       0.95808   0.60494   0.75000 
N          N       0.39506   0.35314   0.75000 
N          N       0.64686   0.04192   0.75000 
N          N       0.04192   0.39506   0.75000 
N          N       0.60494   0.64686   0.75000 
N          N       0.35314   0.95808   0.75000 
S          S       0.86743   0.64240   0.75000 
S          S       0.35760   0.22503   0.75000 
S          S       0.77497   0.13257   0.75000 
S          S       0.13257   0.35760   0.75000 
S          S       0.64240   0.77497   0.75000 
S          S       0.22503   0.86743   0.75000 
C          C       0.98005   0.55261   0.75000 
C          C       0.44739   0.42744   0.75000 
C          C       0.57256   0.01995   0.75000 
C          C       0.01995   0.44739   0.75000 
C          C       0.55261   0.57256   0.75000 
C          C       0.42744   0.98005   0.75000 
C          C       0.93143   0.48020   0.75000 
C          C       0.51980   0.45123   0.75000 
C          C       0.54877   0.06857   0.75000 
C          C       0.06857   0.51980   0.75000 
C          C       0.48020   0.54877   0.75000 
C          C       0.45123   0.93143   0.75000 
C          C       0.95032   0.42766   0.75000 
C          C       0.57234   0.52266   0.75000 
C          C       0.47734   0.04968   0.75000 
C          C       0.04968   0.57234   0.75000 
C          C       0.42766   0.47734   0.75000 
C          C       0.52266   0.95032   0.75000 
O          O       0.80515   0.38202   0.75000 
O          O       0.61798   0.42313   0.75000 
O          O       0.57687   0.19485   0.75000 
O          O       0.19485   0.61798   0.75000 
O          O       0.38202   0.57687   0.75000 
O          O       0.42313   0.80515   0.75000 
H          H       0.73188   0.51706   0.75000 
H          H       0.48294   0.21482   0.75000 
H          H       0.78518   0.26812   0.75000 
H          H       0.26812   0.48294   0.75000 
H          H       0.51706   0.78518   0.75000 
H          H       0.21482   0.73188   0.75000 
H          H       0.85695   0.48069   0.75000 
H          H       0.51931   0.37626   0.75000 
H          H       0.62374   0.14305   0.75000 
H          H       0.14305   0.51931   0.75000 
H          H       0.48069   0.62374   0.75000 
H          H       0.37626   0.85695   0.75000 
H          H       0.00081   0.66141   0.75000 
H          H       0.33859   0.33940   0.75000 
H          H       0.66060   0.99919   0.75000 
H          H       0.99919   0.33859   0.75000 
H          H       0.66141   0.66060   0.75000 
H          H       0.33940   0.00081   0.75000 
H          H       0.87209   0.46070   0.75000 
H          H       0.53930   0.41139   0.75000 
H          H       0.58861   0.12791   0.75000 
H          H       0.12791   0.53930   0.75000 
H          H       0.46070   0.58861   0.75000 
H          H       0.41139   0.87209   0.75000 
H          H       0.90738   0.36929   0.75000 
H          H       0.63071   0.53809   0.75000 
H          H       0.46191   0.09262   0.75000 
H          H       0.09262   0.63071   0.75000 
H          H       0.36929   0.46191   0.75000 
H          H       0.53809   0.90738   0.75000 
