data_crystal
 
_cell_length_a    28.74030
_cell_length_b    28.75330
_cell_length_c    7.05620
_cell_angle_alpha 90.00000
_cell_angle_beta  90.00000
_cell_angle_gamma 60.00000
 
_space_group_name_Hall 'P 1'
_space_group_name_H-M_alt  'P 1'
 
loop_
_symmetry_equiv_pos_as_xyz
 'x,y,z' 
 
loop_
_atom_site_label
_atom_site_type_symbol
_atom_site_fract_x
_atom_site_fract_y
_atom_site_fract_z
C          C       0.28405   0.31496   0.25000 
C          C       0.26165   0.37108   0.25000 
C          C       0.29602   0.39337   0.25000 
C          C       0.35382   0.36029   0.25000 
C          C       0.37482   0.30272   0.25000 
C          C       0.20032   0.40819   0.25000 
C          C       0.39185   0.38401   0.25000 
C          C       0.36633   0.21813   0.25000 
N          N       0.17866   0.46013   0.25000 
C          C       0.12200   0.48859   0.25000 
C          C       0.09903   0.45686   0.25000 
S          S       0.14913   0.38716   0.25000 
N          N       0.44372   0.35352   0.25000 
C          C       0.47354   0.38060   0.25000 
C          C       0.44280   0.43503   0.25000 
S          S       0.37334   0.45530   0.25000 
S          S       0.43881   0.16744   0.25000 
C          C       0.42018   0.11656   0.25000 
C          C       0.36557   0.13906   0.25000 
N          N       0.33696   0.19566   0.25000 
C          C       0.04305   0.47938   0.25000 
C          C       0.01059   0.53623   0.25000 
C          C       0.03491   0.56839   0.25000 
C          C       0.09104   0.54433   0.25000 
C          C       0.53633   0.56598   0.25000 
S          S       0.60596   0.54753   0.25000 
C          C       0.51791   0.94811   0.25000 
C          C       0.54242   0.98044   0.25000 
C          C       0.59899   0.95569   0.25000 
C          C       0.63075   0.89937   0.25000 
C          C       0.51417   0.53210   0.25000 
C          C       0.45728   0.55623   0.25000 
C          C       0.42473   0.61256   0.25000 
C          C       0.44833   0.64494   0.25000 
C          C       0.46566   0.46805   0.25000 
C          C       0.52247   0.44358   0.25000 
C          C       0.55416   0.38701   0.25000 
C          C       0.52947   0.35529   0.25000 
C          C       0.34105   0.10786   0.25000 
C          C       0.37332   0.05186   0.25000 
C          C       0.42971   0.02793   0.25000 
C          C       0.45395   0.06059   0.25000 
C          C       0.51018   0.03657   0.25000 
C          C       0.54638   0.47588   0.25000 
C          C       0.46188   0.97205   0.25000 
C          C       0.43360   0.52403   0.25000 
O          O       0.42946   0.26486   0.25000 
O          O       0.26834   0.44932   0.25000 
O          O       0.24647   0.29769   0.25000 
O          O       0.71129   0.72362   0.25000 
C          C       0.93050   0.52804   0.25000 
C          C       0.96284   0.47122   0.25000 
C          C       0.01892   0.44732   0.25000 
C          C       0.93821   0.43931   0.25000 
C          C       0.88195   0.46371   0.25000 
C          C       0.85125   0.51953   0.25000 
C          C       0.87458   0.55069   0.25000 
S          S       0.82469   0.62009   0.25000 
C          C       0.77245   0.60056   0.25000 
N          N       0.79449   0.54873   0.25000 
C          C       0.71050   0.63709   0.25000 
C          C       0.67588   0.61394   0.25000 
C          C       0.61934   0.64598   0.25000 
C          C       0.59502   0.70269   0.25000 
C          C       0.62636   0.72871   0.25000 
C          C       0.68377   0.69520   0.25000 
C          C       0.60210   0.79053   0.25000 
C          C       0.58369   0.62009   0.25000 
N          N       0.63274   0.81196   0.25000 
C          C       0.60550   0.86872   0.25000 
C          C       0.55096   0.89224   0.25000 
S          S       0.53059   0.84296   0.25000 
N          N       0.53171   0.64943   0.25000 
C          C       0.50401   0.62060   0.25000 
O          O       0.53901   0.73004   0.25000 
O          O       0.69386   0.55896   0.25000 
H          H       0.01055   0.61178   0.25000 
H          H       0.11052   0.56827   0.25000 
H          H       0.92976   0.60342   0.25000 
H          H       0.04370   0.40397   0.25000 
H          H       0.96238   0.39590   0.25000 
H          H       0.86231   0.43996   0.25000 
H          H       0.61832   0.97980   0.25000 
H          H       0.67416   0.87961   0.25000 
H          H       0.38133   0.63128   0.25000 
H          H       0.42410   0.68830   0.25000 
H          H       0.59760   0.36765   0.25000 
H          H       0.55306   0.31194   0.25000 
H          H       0.29770   0.12696   0.25000 
H          H       0.35446   0.02730   0.25000 
H          H       0.52870   0.06143   0.25000 
H          H       0.58974   0.45744   0.25000 
H          H       0.44335   0.94720   0.25000 
H          H       0.39023   0.54250   0.25000 
H          H       0.45976   0.27230   0.25000 
H          H       0.28497   0.47216   0.25000 
H          H       0.25453   0.25968   0.25000 
H          H       0.75070   0.70712   0.25000 
H          H       0.51597   0.76956   0.25000 
H          H       0.73182   0.52904   0.25000 
C          C       0.28405   0.31496   0.75000 
C          C       0.26165   0.37108   0.75000 
C          C       0.29602   0.39337   0.75000 
C          C       0.35382   0.36029   0.75000 
C          C       0.37482   0.30272   0.75000 
C          C       0.20032   0.40819   0.75000 
C          C       0.39185   0.38401   0.75000 
C          C       0.36633   0.21813   0.75000 
N          N       0.17866   0.46013   0.75000 
C          C       0.12200   0.48859   0.75000 
C          C       0.09903   0.45686   0.75000 
S          S       0.14913   0.38716   0.75000 
N          N       0.44372   0.35352   0.75000 
C          C       0.47354   0.38060   0.75000 
C          C       0.44280   0.43503   0.75000 
S          S       0.37334   0.45530   0.75000 
S          S       0.43881   0.16744   0.75000 
C          C       0.42018   0.11656   0.75000 
C          C       0.36557   0.13906   0.75000 
N          N       0.33696   0.19566   0.75000 
C          C       0.04305   0.47938   0.75000 
C          C       0.01059   0.53623   0.75000 
C          C       0.03491   0.56839   0.75000 
C          C       0.09104   0.54433   0.75000 
C          C       0.53633   0.56598   0.75000 
S          S       0.60596   0.54753   0.75000 
C          C       0.51791   0.94811   0.75000 
C          C       0.54242   0.98044   0.75000 
C          C       0.59899   0.95569   0.75000 
C          C       0.63075   0.89937   0.75000 
C          C       0.51417   0.53210   0.75000 
C          C       0.45728   0.55623   0.75000 
C          C       0.42473   0.61256   0.75000 
C          C       0.44833   0.64494   0.75000 
C          C       0.46566   0.46805   0.75000 
C          C       0.52247   0.44358   0.75000 
C          C       0.55416   0.38701   0.75000 
C          C       0.52947   0.35529   0.75000 
C          C       0.34105   0.10786   0.75000 
C          C       0.37332   0.05186   0.75000 
C          C       0.42971   0.02793   0.75000 
C          C       0.45395   0.06059   0.75000 
C          C       0.51018   0.03657   0.75000 
C          C       0.54638   0.47588   0.75000 
C          C       0.46188   0.97205   0.75000 
C          C       0.43360   0.52403   0.75000 
O          O       0.42946   0.26486   0.75000 
O          O       0.26834   0.44932   0.75000 
O          O       0.24647   0.29769   0.75000 
O          O       0.71129   0.72362   0.75000 
C          C       0.93050   0.52804   0.75000 
C          C       0.96284   0.47122   0.75000 
C          C       0.01892   0.44732   0.75000 
C          C       0.93821   0.43931   0.75000 
C          C       0.88195   0.46371   0.75000 
C          C       0.85125   0.51953   0.75000 
C          C       0.87458   0.55069   0.75000 
S          S       0.82469   0.62009   0.75000 
C          C       0.77245   0.60056   0.75000 
N          N       0.79449   0.54873   0.75000 
C          C       0.71050   0.63709   0.75000 
C          C       0.67588   0.61394   0.75000 
C          C       0.61934   0.64598   0.75000 
C          C       0.59502   0.70269   0.75000 
C          C       0.62636   0.72871   0.75000 
C          C       0.68377   0.69520   0.75000 
C          C       0.60210   0.79053   0.75000 
C          C       0.58369   0.62009   0.75000 
N          N       0.63274   0.81196   0.75000 
C          C       0.60550   0.86872   0.75000 
C          C       0.55096   0.89224   0.75000 
S          S       0.53059   0.84296   0.75000 
N          N       0.53171   0.64943   0.75000 
C          C       0.50401   0.62060   0.75000 
O          O       0.53901   0.73004   0.75000 
O          O       0.69386   0.55896   0.75000 
H          H       0.01055   0.61178   0.75000 
H          H       0.11052   0.56827   0.75000 
H          H       0.92976   0.60342   0.75000 
H          H       0.04370   0.40397   0.75000 
H          H       0.96238   0.39590   0.75000 
H          H       0.86231   0.43996   0.75000 
H          H       0.61832   0.97980   0.75000 
H          H       0.67416   0.87961   0.75000 
H          H       0.38133   0.63128   0.75000 
H          H       0.42410   0.68830   0.75000 
H          H       0.59760   0.36765   0.75000 
H          H       0.55306   0.31194   0.75000 
H          H       0.29770   0.12696   0.75000 
H          H       0.35446   0.02730   0.75000 
H          H       0.52870   0.06143   0.75000 
H          H       0.58974   0.45744   0.75000 
H          H       0.44335   0.94720   0.75000 
H          H       0.39023   0.54250   0.75000 
H          H       0.45976   0.27230   0.75000 
H          H       0.28497   0.47216   0.75000 
H          H       0.25453   0.25968   0.75000 
H          H       0.75070   0.70712   0.75000 
H          H       0.51597   0.76956   0.75000 
H          H       0.73182   0.52904   0.75000 
