data_crystal

_cell_length_a    25.93000
_cell_length_b    31.31000
_cell_length_c    11.18000
_cell_angle_alpha 90.00000
_cell_angle_beta  90.00000
_cell_angle_gamma 90.00000

_space_group_name_Hall 'P 1'
_space_group_name_H-M_alt 'P 1'

loop_
_symmetry_equiv_pos_as_xyz
 'x,y,z'

loop_
_atom_site_label
_atom_site_type_symbol
_atom_site_fract_x
_atom_site_fract_y
_atom_site_fract_z
H          H       0.04796   0.16568   0.24040
H          H       0.95204   0.83432   0.24040
H          H       0.95204   0.16568   0.25960
H          H       0.04796   0.83432   0.25960
H          H       0.17229   0.19307   0.02726
H          H       0.82771   0.80693   0.02726
H          H       0.82771   0.19307   0.47274
H          H       0.17229   0.80693   0.47274
H          H       0.10778   0.13252   0.03936
H          H       0.89222   0.86748   0.03936
H          H       0.89222   0.13252   0.46064
H          H       0.10778   0.86748   0.46064
H          H       0.57948   0.62737   0.43288
H          H       0.42052   0.37263   0.43288
H          H       0.42052   0.62737   0.06712
H          H       0.57948   0.37263   0.06712
H          H       0.52462   0.56083   0.42523
H          H       0.47538   0.43917   0.42523
H          H       0.47538   0.56083   0.07477
H          H       0.52462   0.43917   0.07477
H          H       0.59465   0.52628   0.07984
H          H       0.40535   0.47372   0.07984
H          H       0.40535   0.52628   0.42016
H          H       0.59465   0.47372   0.42016
H          H       0.64833   0.59351   0.08528
H          H       0.35167   0.40649   0.08528
H          H       0.35167   0.59351   0.41472
H          H       0.64833   0.40649   0.41472
H          H       0.62672   0.32328   0.41033
H          H       0.37328   0.67672   0.41033
H          H       0.37328   0.32328   0.08967
H          H       0.62672   0.67672   0.08967
H          H       0.68416   0.25824   0.39638
H          H       0.31584   0.74176   0.39638
H          H       0.31584   0.25824   0.10362
H          H       0.68416   0.74176   0.10362
H          H       0.73858   0.30084   0.04251
H          H       0.26142   0.69916   0.04251
H          H       0.26142   0.30084   0.45749
H          H       0.73858   0.69916   0.45749
H          H       0.68133   0.36567   0.05678
H          H       0.31867   0.63433   0.05678
H          H       0.31867   0.36567   0.44322
H          H       0.68133   0.63433   0.44322
H          H       0.76678   0.15748   0.11881
H          H       0.23322   0.84252   0.11881
H          H       0.23322   0.15748   0.38119
H          H       0.76678   0.84252   0.38119
H          H       0.83159   0.09749   0.10612
H          H       0.16841   0.90251   0.10612
H          H       0.16841   0.09749   0.39388
H          H       0.83159   0.90251   0.39388
H          H       0.76299   0.22912   0.11446
H          H       0.23701   0.77088   0.11446
H          H       0.23701   0.22912   0.38554
H          H       0.76299   0.77088   0.38554
H          H       0.80322   0.04985   0.27252
H          H       0.19678   0.95015   0.27252
H          H       0.19678   0.04985   0.22748
H          H       0.80322   0.95015   0.22748
C          C       0.02607   0.13427   0.24452
C          C       0.97393   0.86573   0.24452
C          C       0.97393   0.13427   0.25548
C          C       0.02607   0.86573   0.25548
C          C       0.11085   0.03443   0.23986
C          C       0.88915   0.96557   0.23986
C          C       0.88915   0.03443   0.26014
C          C       0.11085   0.96557   0.26014
C          C       0.17081   0.17205   0.11047
C          C       0.82919   0.82795   0.11047
C          C       0.82919   0.17205   0.38953
C          C       0.17081   0.82795   0.38953
C          C       0.13534   0.13865   0.11704
C          C       0.86466   0.86135   0.11704
C          C       0.86466   0.13865   0.38296
C          C       0.13534   0.86135   0.38296
C          C       0.61721   0.61406   0.25962
C          C       0.38279   0.38594   0.25962
C          C       0.38279   0.61406   0.24038
C          C       0.61721   0.38594   0.24038
C          C       0.58281   0.60484   0.35318
C          C       0.41719   0.39516   0.35318
C          C       0.41719   0.60484   0.14682
C          C       0.58281   0.39516   0.14682
C          C       0.55259   0.56812   0.34916
C          C       0.44741   0.43188   0.34916
C          C       0.44741   0.56812   0.15084
C          C       0.55259   0.43188   0.15084
C          C       0.55634   0.54003   0.25203
C          C       0.44366   0.45997   0.25203
C          C       0.44366   0.54003   0.24797
C          C       0.55634   0.45997   0.24797
C          C       0.59089   0.54910   0.15879
C          C       0.40911   0.45090   0.15879
C          C       0.40911   0.54910   0.34121
C          C       0.59089   0.45090   0.34121
C          C       0.62081   0.58603   0.16208
C          C       0.37919   0.41397   0.16208
C          C       0.37919   0.58603   0.33792
C          C       0.62081   0.41397   0.33792
C          C       0.65064   0.34800   0.23374
C          C       0.34936   0.65200   0.23374
C          C       0.34936   0.34800   0.26626
C          C       0.65064   0.65200   0.26626
C          C       0.65175   0.31826   0.32755
C          C       0.34825   0.68175   0.32755
C          C       0.34825   0.31826   0.17245
C          C       0.65175   0.68175   0.17245
C          C       0.68350   0.28235   0.32004
C          C       0.31650   0.71765   0.32004
C          C       0.31650   0.28235   0.17996
C          C       0.68350   0.71765   0.17996
C          C       0.71352   0.30571   0.12531
C          C       0.28648   0.69429   0.12531
C          C       0.28648   0.30571   0.37469
C          C       0.71352   0.69429   0.37469
C          C       0.68189   0.34148   0.13291
C          C       0.31811   0.65852   0.13291
C          C       0.31811   0.34148   0.36709
C          C       0.68189   0.65852   0.36709
C          C       0.28536   0.27585   0.28142
C          C       0.71464   0.72415   0.28142
C          C       0.71464   0.27585   0.21858
C          C       0.28536   0.72415   0.21858
C          C       0.83314   0.02369   0.25970
C          C       0.16686   0.97631   0.25970
C          C       0.16686   0.02369   0.24030
C          C       0.83314   0.97631   0.24030
C          C       0.95870   0.09206   0.25931
C          C       0.04130   0.90794   0.25931
C          C       0.04130   0.09206   0.24069
C          C       0.95870   0.90794   0.24069
C          C       0.79535   0.17991   0.29436
C          C       0.20465   0.82009   0.29436
C          C       0.20465   0.17991   0.20564
C          C       0.79535   0.82009   0.20564
C          C       0.79565   0.15255   0.19458
C          C       0.20435   0.84745   0.19458
C          C       0.20435   0.15255   0.30542
C          C       0.79565   0.84745   0.30542
C          C       0.83120   0.11930   0.18774
C          C       0.16880   0.88070   0.18774
C          C       0.16880   0.11930   0.31226
C          C       0.83120   0.88070   0.31226
C          C       0.86654   0.11253   0.28092
C          C       0.13346   0.88747   0.28092
C          C       0.13346   0.11253   0.21908
C          C       0.86654   0.88747   0.21908
C          C       0.90689   0.07920   0.26912
C          C       0.09311   0.92080   0.26912
C          C       0.09311   0.07920   0.23088
C          C       0.90689   0.92080   0.23088
C          C       0.74843   0.23839   0.20725
C          C       0.25157   0.76161   0.20725
C          C       0.25157   0.23839   0.29275
C          C       0.74843   0.76161   0.29275
C          C       0.52621   0.50000   0.25000
C          C       0.47379   0.50000   0.25000
N          N       0.76168   0.21609   0.30035
N          N       0.23832   0.78391   0.30035
N          N       0.23832   0.21609   0.19965
N          N       0.76168   0.78391   0.19965
N          N       0.00000   0.06579   0.25000
N          N       0.00000   0.93421   0.25000
N          N       0.08011   0.00000   0.25000
N          N       0.91989   0.00000   0.25000
H          H       0.04796   0.16568   0.74040
H          H       0.95204   0.83432   0.74040
H          H       0.95204   0.16568   0.75960
H          H       0.04796   0.83432   0.75960
H          H       0.17229   0.19307   0.52726
H          H       0.82771   0.80693   0.52726
H          H       0.82771   0.19307   0.97274
H          H       0.17229   0.80693   0.97274
H          H       0.10778   0.13252   0.53936
H          H       0.89222   0.86748   0.53936
H          H       0.89222   0.13252   0.96064
H          H       0.10778   0.86748   0.96064
H          H       0.57948   0.62737   0.93288
H          H       0.42052   0.37263   0.93288
H          H       0.42052   0.62737   0.56712
H          H       0.57948   0.37263   0.56712
H          H       0.52462   0.56083   0.92523
H          H       0.47538   0.43917   0.92523
H          H       0.47538   0.56083   0.57477
H          H       0.52462   0.43917   0.57477
H          H       0.59465   0.52628   0.57984
H          H       0.40535   0.47372   0.57984
H          H       0.40535   0.52628   0.92016
H          H       0.59465   0.47372   0.92016
H          H       0.64833   0.59351   0.58528
H          H       0.35167   0.40649   0.58528
H          H       0.35167   0.59351   0.91472
H          H       0.64833   0.40649   0.91472
H          H       0.62672   0.32328   0.91033
H          H       0.37328   0.67672   0.91033
H          H       0.37328   0.32328   0.58967
H          H       0.62672   0.67672   0.58967
H          H       0.68416   0.25824   0.89638
H          H       0.31584   0.74176   0.89638
H          H       0.31584   0.25824   0.60362
H          H       0.68416   0.74176   0.60362
H          H       0.73858   0.30084   0.54251
H          H       0.26142   0.69916   0.54251
H          H       0.26142   0.30084   0.95749
H          H       0.73858   0.69916   0.95749
H          H       0.68133   0.36567   0.55678
H          H       0.31867   0.63433   0.55678
H          H       0.31867   0.36567   0.94322
H          H       0.68133   0.63433   0.94322
H          H       0.76678   0.15748   0.61881
H          H       0.23322   0.84252   0.61881
H          H       0.23322   0.15748   0.88119
H          H       0.76678   0.84252   0.88119
H          H       0.83159   0.09749   0.60612
H          H       0.16841   0.90251   0.60612
H          H       0.16841   0.09749   0.89388
H          H       0.83159   0.90251   0.89388
H          H       0.76299   0.22912   0.61446
H          H       0.23701   0.77088   0.61446
H          H       0.23701   0.22912   0.88554
H          H       0.76299   0.77088   0.88554
H          H       0.80322   0.04985   0.77252
H          H       0.19678   0.95015   0.77252
H          H       0.19678   0.04985   0.72748
H          H       0.80322   0.95015   0.72748
C          C       0.02607   0.13427   0.74452
C          C       0.97393   0.86573   0.74452
C          C       0.97393   0.13427   0.75548
C          C       0.02607   0.86573   0.75548
C          C       0.11085   0.03443   0.73986
C          C       0.88915   0.96557   0.73986
C          C       0.88915   0.03443   0.76014
C          C       0.11085   0.96557   0.76014
C          C       0.17081   0.17205   0.61047
C          C       0.82919   0.82795   0.61047
C          C       0.82919   0.17205   0.88953
C          C       0.17081   0.82795   0.88953
C          C       0.13534   0.13865   0.61704
C          C       0.86466   0.86135   0.61704
C          C       0.86466   0.13865   0.88296
C          C       0.13534   0.86135   0.88296
C          C       0.61721   0.61406   0.75962
C          C       0.38279   0.38594   0.75962
C          C       0.38279   0.61406   0.74038
C          C       0.61721   0.38594   0.74038
C          C       0.58281   0.60484   0.85318
C          C       0.41719   0.39516   0.85318
C          C       0.41719   0.60484   0.64682
C          C       0.58281   0.39516   0.64682
C          C       0.55259   0.56812   0.84916
C          C       0.44741   0.43188   0.84916
C          C       0.44741   0.56812   0.65084
C          C       0.55259   0.43188   0.65084
C          C       0.55634   0.54003   0.75203
C          C       0.44366   0.45997   0.75203
C          C       0.44366   0.54003   0.74797
C          C       0.55634   0.45997   0.74797
C          C       0.59089   0.54910   0.65879
C          C       0.40911   0.45090   0.65879
C          C       0.40911   0.54910   0.84121
C          C       0.59089   0.45090   0.84121
C          C       0.62081   0.58603   0.66208
C          C       0.37919   0.41397   0.66208
C          C       0.37919   0.58603   0.83792
C          C       0.62081   0.41397   0.83792
C          C       0.65064   0.34800   0.73374
C          C       0.34936   0.65200   0.73374
C          C       0.34936   0.34800   0.76626
C          C       0.65064   0.65200   0.76626
C          C       0.65175   0.31826   0.82755
C          C       0.34825   0.68175   0.82755
C          C       0.34825   0.31826   0.67245
C          C       0.65175   0.68175   0.67245
C          C       0.68350   0.28235   0.82004
C          C       0.31650   0.71765   0.82004
C          C       0.31650   0.28235   0.67996
C          C       0.68350   0.71765   0.67996
C          C       0.71352   0.30571   0.62531
C          C       0.28648   0.69429   0.62531
C          C       0.28648   0.30571   0.87469
C          C       0.71352   0.69429   0.87469
C          C       0.68189   0.34148   0.63291
C          C       0.31811   0.65852   0.63291
C          C       0.31811   0.34148   0.86709
C          C       0.68189   0.65852   0.86709
C          C       0.28536   0.27585   0.78142
C          C       0.71464   0.72415   0.78142
C          C       0.71464   0.27585   0.71858
C          C       0.28536   0.72415   0.71858
C          C       0.83314   0.02369   0.75970
C          C       0.16686   0.97631   0.75970
C          C       0.16686   0.02369   0.74030
C          C       0.83314   0.97631   0.74030
C          C       0.95870   0.09206   0.75931
C          C       0.04130   0.90794   0.75931
C          C       0.04130   0.09206   0.74069
C          C       0.95870   0.90794   0.74069
C          C       0.79535   0.17991   0.79436
C          C       0.20465   0.82009   0.79436
C          C       0.20465   0.17991   0.70564
C          C       0.79535   0.82009   0.70564
C          C       0.79565   0.15255   0.69458
C          C       0.20435   0.84745   0.69458
C          C       0.20435   0.15255   0.80542
C          C       0.79565   0.84745   0.80542
C          C       0.83120   0.11930   0.68774
C          C       0.16880   0.88070   0.68774
C          C       0.16880   0.11930   0.81226
C          C       0.83120   0.88070   0.81226
C          C       0.86654   0.11253   0.78092
C          C       0.13346   0.88747   0.78092
C          C       0.13346   0.11253   0.71908
C          C       0.86654   0.88747   0.71908
C          C       0.90689   0.07920   0.76912
C          C       0.09311   0.92080   0.76912
C          C       0.09311   0.07920   0.73088
C          C       0.90689   0.92080   0.73088
C          C       0.74843   0.23839   0.70725
C          C       0.25157   0.76161   0.70725
C          C       0.25157   0.23839   0.79275
C          C       0.74843   0.76161   0.79275
C          C       0.52621   0.50000   0.75000
C          C       0.47379   0.50000   0.75000
N          N       0.76168   0.21609   0.80035
N          N       0.23832   0.78391   0.80035
N          N       0.23832   0.21609   0.69965
N          N       0.76168   0.78391   0.69965
N          N       0.00000   0.06579   0.75000
N          N       0.00000   0.93421   0.75000
N          N       0.08011   0.00000   0.75000
N          N       0.91989   0.00000   0.75000
