data_crystal

_cell_length_a    24.58640
_cell_length_b    24.58640
_cell_length_c    6.91800
_cell_angle_alpha 90.00000
_cell_angle_beta  90.00000
_cell_angle_gamma 120.00000

_space_group_name_Hall 'P 1'
_space_group_name_H-M_alt 'P 1'

loop_
_symmetry_equiv_pos_as_xyz
 'x,y,z'

loop_
_atom_site_label
_atom_site_type_symbol
_atom_site_fract_x
_atom_site_fract_y
_atom_site_fract_z
Ni         Ni      0.37734   0.18867   0.23406
Ni         Ni      0.81133   0.18867   0.23406
Ni         Ni      0.81133   0.62266   0.23406
Ni         Ni      0.62266   0.81133   0.23406
Ni         Ni      0.18867   0.81133   0.23406
Ni         Ni      0.18867   0.37734   0.23406
C          C       0.37140   0.05585   0.23406
C          C       0.94415   0.31555   0.23406
C          C       0.68445   0.62860   0.23406
C          C       0.62860   0.94415   0.23406
C          C       0.05585   0.68445   0.23406
C          C       0.31555   0.37140   0.23406
C          C       0.31508   0.05717   0.23406
C          C       0.94283   0.25791   0.23406
C          C       0.74209   0.68492   0.23406
C          C       0.68492   0.94283   0.23406
C          C       0.05717   0.74209   0.23406
C          C       0.25791   0.31508   0.23406
C          C       0.42955   0.10997   0.23406
C          C       0.89003   0.31958   0.23406
C          C       0.68042   0.57045   0.23406
C          C       0.57045   0.89003   0.23406
C          C       0.10997   0.68042   0.23406
C          C       0.31958   0.42955   0.23406
O          O       0.32374   0.11281   0.23406
O          O       0.88719   0.21093   0.23406
O          O       0.78907   0.67626   0.23406
O          O       0.67626   0.88719   0.23406
O          O       0.11281   0.78907   0.23406
O          O       0.21093   0.32374   0.23406
C          C       0.60925   0.33352   0.23406
C          C       0.66648   0.27573   0.23406
C          C       0.72427   0.39075   0.23406
C          C       0.39075   0.66648   0.23406
C          C       0.33352   0.72427   0.23406
C          C       0.27573   0.60925   0.23406
C          C       0.60925   0.27573   0.23406
C          C       0.72427   0.33352   0.23406
C          C       0.66648   0.39075   0.23406
C          C       0.39075   0.72427   0.23406
C          C       0.27573   0.66648   0.23406
C          C       0.33352   0.60925   0.23406
C          C       0.55161   0.21890   0.23406
C          C       0.78110   0.33271   0.23406
C          C       0.66729   0.44839   0.23406
C          C       0.44839   0.78110   0.23406
C          C       0.21890   0.66729   0.23406
C          C       0.33271   0.55161   0.23406
C          C       0.49516   0.21982   0.23406
C          C       0.78018   0.27534   0.23406
C          C       0.72466   0.50484   0.23406
C          C       0.50484   0.78018   0.23406
C          C       0.21982   0.72466   0.23406
C          C       0.27534   0.49516   0.23406
C          C       0.49516   0.27534   0.23406
C          C       0.72466   0.21982   0.23406
C          C       0.78018   0.50484   0.23406
C          C       0.50484   0.72466   0.23406
C          C       0.27534   0.78018   0.23406
C          C       0.21982   0.49516   0.23406
C          C       0.55161   0.33271   0.23406
C          C       0.66729   0.21890   0.23406
C          C       0.78110   0.44839   0.23406
C          C       0.44839   0.66729   0.23406
C          C       0.33271   0.78110   0.23406
C          C       0.21890   0.55161   0.23406
N          N       0.43744   0.26885   0.23406
N          N       0.73115   0.16859   0.23406
N          N       0.83141   0.56256   0.23406
N          N       0.56256   0.73115   0.23406
N          N       0.26885   0.83141   0.23406
N          N       0.16859   0.43744   0.23406
N          N       0.43744   0.16859   0.23406
N          N       0.83141   0.26885   0.23406
N          N       0.73115   0.56256   0.23406
N          N       0.56256   0.83141   0.23406
N          N       0.16859   0.73115   0.23406
N          N       0.26885   0.43744   0.23406
O          O       0.32374   0.21093   0.23406
O          O       0.78907   0.11281   0.23406
O          O       0.88719   0.67626   0.23406
O          O       0.67626   0.78907   0.23406
O          O       0.21093   0.88719   0.23406
O          O       0.11281   0.32374   0.23406
C          C       0.57045   0.68042   0.23406
C          C       0.31958   0.89003   0.23406
C          C       0.10997   0.42955   0.23406
C          C       0.42955   0.31958   0.23406
C          C       0.68042   0.10997   0.23406
C          C       0.89003   0.57045   0.23406
C          C       0.68492   0.74209   0.23406
C          C       0.25791   0.94283   0.23406
C          C       0.05717   0.31508   0.23406
C          C       0.31508   0.25791   0.23406
C          C       0.74209   0.05717   0.23406
C          C       0.94283   0.68492   0.23406
C          C       0.62860   0.68445   0.23406
C          C       0.31555   0.94415   0.23406
C          C       0.05585   0.37140   0.23406
C          C       0.37140   0.31555   0.23406
C          C       0.68445   0.05585   0.23406
C          C       0.94415   0.62860   0.23406
C          C       0.74358   0.74358   0.23406
C          C       0.25642   0.00000   0.23406
C          C       0.00000   0.25642   0.23406
C          C       0.25642   0.25642   0.23406
C          C       0.74358   0.00000   0.23406
C          C       0.00000   0.74358   0.23406
C          C       0.62868   0.62868   0.23406
C          C       0.37132   0.00000   0.23406
C          C       0.00000   0.37132   0.23406
C          C       0.37132   0.37132   0.23406
C          C       0.62868   0.00000   0.23406
C          C       0.00000   0.62868   0.23406
C          C       0.19585   0.19585   0.23406
C          C       0.80415   0.00000   0.23406
C          C       0.00000   0.80415   0.23406
C          C       0.80415   0.80415   0.23406
C          C       0.19585   0.00000   0.23406
C          C       0.00000   0.19585   0.23406
H          H       0.83097   0.02411   0.36259
H          H       0.79480  -0.04822   0.23406
H          H       0.83097   0.02411   0.10553
H          H       0.19314   0.02411   0.10553
H          H       0.15698  -0.04822   0.23406
H          H       0.19314   0.02411   0.36259
H          H       0.58439   0.58439   0.23406
H          H       0.02411   0.83097   0.10553
H          H      -0.04822   0.79480   0.23406
H          H       0.02411   0.83097   0.36259
H          H       0.00000   0.58439   0.23406
H          H       0.41561  -0.00000   0.23406
H          H       0.58439   0.00000   0.23406
H          H      -0.00000   0.41561   0.23406
H          H       0.41561   0.41561   0.23406
H          H       0.02411   0.19314   0.36259
H          H      -0.04822   0.15698   0.23406
H          H       0.02411   0.19314   0.10553
H          H       0.63394   0.52873   0.23406
H          H       0.89479   0.36606   0.23406
H          H       0.52873   0.89479   0.23406
H          H       0.10521   0.63394   0.23406
H          H       0.36606   0.47127   0.23406
H          H       0.52873   0.63394   0.23406
H          H       0.36606   0.89479   0.23406
H          H       0.63394   0.10521   0.23406
H          H       0.47127   0.36606   0.23406
H          H       0.89479   0.52873   0.23406
H          H       0.10521   0.47127   0.23406
H          H       0.44906   0.62334   0.23406
H          H       0.17428   0.55094   0.23406
H          H       0.82573   0.44906   0.23406
H          H       0.37666   0.82573   0.23406
H          H       0.55094   0.37666   0.23406
H          H       0.62334   0.17428   0.23406
H          H       0.55094   0.17428   0.23406
H          H       0.62334   0.44906   0.23406
H          H       0.44906   0.82573   0.23406
H          H       0.37666   0.55094   0.23406
H          H       0.82573   0.37666   0.23406
H          H       0.17428   0.62334   0.23406
H          H       0.47127   0.10521   0.23406
H          H       0.16903   0.19314   0.10553
H          H       0.20520   0.15698   0.23406
H          H       0.16903   0.19314   0.36259
H          H       0.83097   0.80686   0.10553
H          H       0.79480   0.84302   0.23406
H          H       0.83097   0.80686   0.36259
Ni         Ni      0.37734   0.18867   0.73406
Ni         Ni      0.81133   0.18867   0.73406
Ni         Ni      0.81133   0.62266   0.73406
Ni         Ni      0.62266   0.81133   0.73406
Ni         Ni      0.18867   0.81133   0.73406
Ni         Ni      0.18867   0.37734   0.73406
C          C       0.37140   0.05585   0.73406
C          C       0.94415   0.31555   0.73406
C          C       0.68445   0.62860   0.73406
C          C       0.62860   0.94415   0.73406
C          C       0.05585   0.68445   0.73406
C          C       0.31555   0.37140   0.73406
C          C       0.31508   0.05717   0.73406
C          C       0.94283   0.25791   0.73406
C          C       0.74209   0.68492   0.73406
C          C       0.68492   0.94283   0.73406
C          C       0.05717   0.74209   0.73406
C          C       0.25791   0.31508   0.73406
C          C       0.42955   0.10997   0.73406
C          C       0.89003   0.31958   0.73406
C          C       0.68042   0.57045   0.73406
C          C       0.57045   0.89003   0.73406
C          C       0.10997   0.68042   0.73406
C          C       0.31958   0.42955   0.73406
O          O       0.32374   0.11281   0.73406
O          O       0.88719   0.21093   0.73406
O          O       0.78907   0.67626   0.73406
O          O       0.67626   0.88719   0.73406
O          O       0.11281   0.78907   0.73406
O          O       0.21093   0.32374   0.73406
C          C       0.60925   0.33352   0.73406
C          C       0.66648   0.27573   0.73406
C          C       0.72427   0.39075   0.73406
C          C       0.39075   0.66648   0.73406
C          C       0.33352   0.72427   0.73406
C          C       0.27573   0.60925   0.73406
C          C       0.60925   0.27573   0.73406
C          C       0.72427   0.33352   0.73406
C          C       0.66648   0.39075   0.73406
C          C       0.39075   0.72427   0.73406
C          C       0.27573   0.66648   0.73406
C          C       0.33352   0.60925   0.73406
C          C       0.55161   0.21890   0.73406
C          C       0.78110   0.33271   0.73406
C          C       0.66729   0.44839   0.73406
C          C       0.44839   0.78110   0.73406
C          C       0.21890   0.66729   0.73406
C          C       0.33271   0.55161   0.73406
C          C       0.49516   0.21982   0.73406
C          C       0.78018   0.27534   0.73406
C          C       0.72466   0.50484   0.73406
C          C       0.50484   0.78018   0.73406
C          C       0.21982   0.72466   0.73406
C          C       0.27534   0.49516   0.73406
C          C       0.49516   0.27534   0.73406
C          C       0.72466   0.21982   0.73406
C          C       0.78018   0.50484   0.73406
C          C       0.50484   0.72466   0.73406
C          C       0.27534   0.78018   0.73406
C          C       0.21982   0.49516   0.73406
C          C       0.55161   0.33271   0.73406
C          C       0.66729   0.21890   0.73406
C          C       0.78110   0.44839   0.73406
C          C       0.44839   0.66729   0.73406
C          C       0.33271   0.78110   0.73406
C          C       0.21890   0.55161   0.73406
N          N       0.43744   0.26885   0.73406
N          N       0.73115   0.16859   0.73406
N          N       0.83141   0.56256   0.73406
N          N       0.56256   0.73115   0.73406
N          N       0.26885   0.83141   0.73406
N          N       0.16859   0.43744   0.73406
N          N       0.43744   0.16859   0.73406
N          N       0.83141   0.26885   0.73406
N          N       0.73115   0.56256   0.73406
N          N       0.56256   0.83141   0.73406
N          N       0.16859   0.73115   0.73406
N          N       0.26885   0.43744   0.73406
O          O       0.32374   0.21093   0.73406
O          O       0.78907   0.11281   0.73406
O          O       0.88719   0.67626   0.73406
O          O       0.67626   0.78907   0.73406
O          O       0.21093   0.88719   0.73406
O          O       0.11281   0.32374   0.73406
C          C       0.57045   0.68042   0.73406
C          C       0.31958   0.89003   0.73406
C          C       0.10997   0.42955   0.73406
C          C       0.42955   0.31958   0.73406
C          C       0.68042   0.10997   0.73406
C          C       0.89003   0.57045   0.73406
C          C       0.68492   0.74209   0.73406
C          C       0.25791   0.94283   0.73406
C          C       0.05717   0.31508   0.73406
C          C       0.31508   0.25791   0.73406
C          C       0.74209   0.05717   0.73406
C          C       0.94283   0.68492   0.73406
C          C       0.62860   0.68445   0.73406
C          C       0.31555   0.94415   0.73406
C          C       0.05585   0.37140   0.73406
C          C       0.37140   0.31555   0.73406
C          C       0.68445   0.05585   0.73406
C          C       0.94415   0.62860   0.73406
C          C       0.74358   0.74358   0.73406
C          C       0.25642   0.00000   0.73406
C          C       0.00000   0.25642   0.73406
C          C       0.25642   0.25642   0.73406
C          C       0.74358   0.00000   0.73406
C          C       0.00000   0.74358   0.73406
C          C       0.62868   0.62868   0.73406
C          C       0.37132   0.00000   0.73406
C          C       0.00000   0.37132   0.73406
C          C       0.37132   0.37132   0.73406
C          C       0.62868   0.00000   0.73406
C          C       0.00000   0.62868   0.73406
C          C       0.19585   0.19585   0.73406
C          C       0.80415   0.00000   0.73406
C          C       0.00000   0.80415   0.73406
C          C       0.80415   0.80415   0.73406
C          C       0.19585   0.00000   0.73406
C          C       0.00000   0.19585   0.73406
H          H       0.47127   0.10521   0.73406
H          H       0.52873   0.89479   0.73406
H          H       0.63394   0.52873   0.73406
H          H       0.89479   0.36606   0.73406
H          H       0.10521   0.63394   0.73406
H          H       0.36606   0.47127   0.73406
H          H       0.17428   0.55094   0.73406
H          H       0.55094   0.37666   0.73406
H          H       0.44906   0.62334   0.73406
H          H       0.82573   0.44906   0.73406
H          H       0.37666   0.82573   0.73406
H          H       0.62334   0.17428   0.73406
H          H       0.37666   0.55094   0.73406
H          H       0.44906   0.82573   0.73406
H          H       0.17428   0.62334   0.73406
H          H       0.62334   0.44906   0.73406
H          H       0.82573   0.37666   0.73406
H          H       0.55094   0.17428   0.73406
H          H       0.10521   0.47127   0.73406
H          H       0.36606   0.89479   0.73406
H          H       0.52873   0.63394   0.73406
H          H       0.02411   0.83097   0.60553
H          H      -0.04822   0.79480   0.73406
H          H       0.02411   0.83097   0.86259
H          H       0.83097   0.02411   0.86259
H          H       0.79480  -0.04822   0.73406
H          H       0.83097   0.02411   0.60553
H          H       0.00000   0.58439   0.73406
H          H       0.41561   0.41561   0.73406
H          H       0.58439   0.00000   0.73406
H          H      -0.00000   0.41561   0.73406
H          H       0.41561  -0.00000   0.73406
H          H       0.58439   0.58439   0.73406
H          H       0.47127   0.36606   0.73406
H          H       0.63394   0.10521   0.73406
H          H       0.89479   0.52873   0.73406
H          H       0.02411   0.19314   0.86259
H          H      -0.04822   0.15698   0.73406
H          H       0.02411   0.19314   0.60553
H          H       0.19314   0.02411   0.60553
H          H       0.15698  -0.04822   0.73406
H          H       0.19314   0.02411   0.86259
H          H       0.16903   0.19314   0.60553
H          H       0.20520   0.15698   0.73406
H          H       0.16903   0.19314   0.86259
H          H       0.83097   0.80686   0.60553
H          H       0.79480   0.84302   0.73406
H          H       0.83097   0.80686   0.86259
