data_crystal

_cell_length_a    24.60480
_cell_length_b    24.60480
_cell_length_c    7.29360
_cell_angle_alpha 79.35140
_cell_angle_beta  79.35140
_cell_angle_gamma 119.63500

_space_group_name_Hall 'P 1'
_space_group_name_H-M_alt 'P 1'

loop_
_symmetry_equiv_pos_as_xyz
 'x,y,z'

loop_
_atom_site_label
_atom_site_type_symbol
_atom_site_fract_x
_atom_site_fract_y
_atom_site_fract_z
Ni         Ni      0.37719   0.18859   0.23583
C          C       0.37142   0.05581   0.23583
C          C       0.31506   0.05706   0.23583
C          C       0.42954   0.10995   0.23583
O          O       0.32355   0.11264   0.23583
C          C       0.60923   0.33352   0.23583
C          C       0.60923   0.27571   0.23583
C          C       0.55157   0.21886   0.23583
C          C       0.49510   0.21979   0.23583
C          C       0.49510   0.27531   0.23583
C          C       0.55157   0.33271   0.23583
N          N       0.43736   0.26881   0.23583
N          N       0.43736   0.16855   0.23583
O          O       0.32355   0.21091   0.23583
C          C       0.57046   0.68042   0.23583
C          C       0.68494   0.74201   0.23583
C          C       0.62858   0.68439   0.23583
C          C       0.74362   0.74362   0.23583
C          C       0.62860   0.62860   0.23583
C          C       0.19809   0.19150   0.20051
Ni         Ni      0.81141   0.18859   0.23583
C          C       0.94419   0.31561   0.23583
C          C       0.94294   0.25799   0.23583
C          C       0.89005   0.31958   0.23583
O          O       0.88736   0.21091   0.23583
C          C       0.66648   0.27571   0.23583
C          C       0.72429   0.33352   0.23583
C          C       0.78114   0.33271   0.23583
C          C       0.78021   0.27531   0.23583
C          C       0.72469   0.21979   0.23583
C          C       0.66729   0.21886   0.23583
N          N       0.73119   0.16855   0.23583
N          N       0.83145   0.26881   0.23583
O          O       0.78909   0.11264   0.23583
C          C       0.31958   0.89005   0.23583
C          C       0.25799   0.94294   0.23583
C          C       0.31561   0.94419   0.23583
C          C       0.25638   0.00000   0.23583
C          C       0.37140   0.00000   0.23583
C          C       0.80850   0.00659   0.20051
Fe         Fe      0.81141   0.62281   0.23583
C          C       0.68439   0.62858   0.23583
C          C       0.74201   0.68494   0.23583
C          C       0.68042   0.57046   0.23583
O          O       0.78909   0.67645   0.23583
C          C       0.72429   0.39077   0.23583
C          C       0.66648   0.39077   0.23583
C          C       0.66729   0.44843   0.23583
C          C       0.72469   0.50490   0.23583
C          C       0.78021   0.50490   0.23583
C          C       0.78114   0.44843   0.23583
N          N       0.83145   0.56264   0.23583
N          N       0.73119   0.56264   0.23583
O          O       0.88736   0.67645   0.23583
C          C       0.10995   0.42954   0.23583
C          C       0.05706   0.31506   0.23583
C          C       0.05581   0.37142   0.23583
C          C       0.00000   0.25638   0.23583
C          C       0.00000   0.37140   0.23583
C          C       0.99341   0.80191   0.20051
Ni         Ni      0.62281   0.81141   0.23583
C          C       0.62858   0.94419   0.23583
C          C       0.68494   0.94294   0.23583
C          C       0.57046   0.89005   0.23583
O          O       0.67645   0.88736   0.23583
C          C       0.39077   0.66648   0.23583
C          C       0.39077   0.72429   0.23583
C          C       0.44843   0.78114   0.23583
C          C       0.50490   0.78021   0.23583
C          C       0.50490   0.72469   0.23583
C          C       0.44843   0.66729   0.23583
N          N       0.56264   0.73119   0.23583
N          N       0.56264   0.83145   0.23583
O          O       0.67645   0.78909   0.23583
C          C       0.42954   0.31958   0.23583
C          C       0.31506   0.25799   0.23583
C          C       0.37142   0.31561   0.23583
C          C       0.25638   0.25638   0.23583
C          C       0.37140   0.37140   0.23583
C          C       0.80191   0.80850   0.20051
Ni         Ni      0.18859   0.81141   0.23583
C          C       0.05581   0.68439   0.23583
C          C       0.05706   0.74201   0.23583
C          C       0.10995   0.68042   0.23583
O          O       0.11264   0.78909   0.23583
C          C       0.33352   0.72429   0.23583
C          C       0.27571   0.66648   0.23583
C          C       0.21886   0.66729   0.23583
C          C       0.21979   0.72469   0.23583
C          C       0.27531   0.78021   0.23583
C          C       0.33271   0.78114   0.23583
N          N       0.26881   0.83145   0.23583
N          N       0.16855   0.73119   0.23583
O          O       0.21091   0.88736   0.23583
C          C       0.68042   0.10995   0.23583
C          C       0.74201   0.05706   0.23583
C          C       0.68439   0.05581   0.23583
C          C       0.74362   0.00000   0.23583
C          C       0.62860   0.00000   0.23583
C          C       0.19150  -0.00659   0.20051
Ni         Ni      0.18859   0.37719   0.23583
C          C       0.31561   0.37142   0.23583
C          C       0.25799   0.31506   0.23583
C          C       0.31958   0.42954   0.23583
O          O       0.21091   0.32355   0.23583
C          C       0.27571   0.60923   0.23583
C          C       0.33352   0.60923   0.23583
C          C       0.33271   0.55157   0.23583
C          C       0.27531   0.49510   0.23583
C          C       0.21979   0.49510   0.23583
C          C       0.21886   0.55157   0.23583
N          N       0.16855   0.43736   0.23583
N          N       0.26881   0.43736   0.23583
O          O       0.11264   0.32355   0.23583
C          C       0.89005   0.57046   0.23583
C          C       0.94294   0.68494   0.23583
C          C       0.94419   0.62858   0.23583
C          C       1.00000   0.74362   0.23583
C          C       0.00000   0.62860   0.23583
C          C       0.00659   0.19809   0.20051
H          H      -0.01406   0.58891   0.36691
H          H       0.01434   0.61732   0.10475
H          H       0.02246   0.18081   0.31514
H          H      -0.04105   0.15760   0.20513
H          H       0.04290   0.21573   0.05694
H          H       0.37638   0.82549   0.23583
H          H       0.17451   0.62362   0.23583
H          H       0.36578   0.47100   0.23583
H          H       0.63414   0.10552   0.23583
H          H       0.58446   0.00024   0.23583
H          H       0.20472   0.02629   0.05464
H          H       0.15645  -0.05738   0.21095
H          H       0.16911   0.00683   0.31186
H          H       0.37651   0.55066   0.23583
H          H       0.17439   0.55114   0.23583
H          H       0.89498   0.52885   0.23583
H          H       0.36586   0.89448   0.23583
H          H       0.52900   0.63423   0.23583
H          H       0.41554  -0.00024   0.23583
H          H       0.55066   0.37651   0.23583
H          H       0.44886   0.82561   0.23583
H          H       0.10552   0.63414   0.23583
H          H       0.58458   0.58458   0.23583
H          H       0.62362   0.17451   0.23583
H          H       0.82561   0.44886   0.23583
H          H       0.10502   0.47115   0.23583
H          H       0.95098   0.79097   0.31607
H          H       1.03801   0.84497   0.20203
H          H       0.98647   0.81203   0.05784
H          H      -0.00024   0.41554   0.23583
H          H       0.52885   0.89498   0.23583
H          H       0.44934   0.62349   0.23583
H          H       0.47100   0.36578   0.23583
H          H       0.41542   0.41542   0.23583
H          H       0.62349   0.44934   0.23583
H          H       0.63423   0.52900   0.23583
H          H       0.82933   0.02274   0.31422
H          H       0.80154  -0.04098   0.20502
H          H       0.84207   0.04283   0.05646
H          H       0.82549   0.37638   0.23583
H          H       0.89448   0.36586   0.23583
H          H       0.18256   0.14699   0.31658
H          H       0.15605   0.19592   0.20362
H          H       0.21700   0.18855   0.05790
H          H       0.47115   0.10502   0.23583
H          H       0.55114   0.17439   0.23583
H          H       0.79247   0.82861   0.31462
H          H       0.84365   0.80405   0.20363
H          H       0.81322   0.84137   0.05685
Ni         Ni      0.37719   0.18859   0.73583
C          C       0.37142   0.05581   0.73583
C          C       0.31506   0.05706   0.73583
C          C       0.42954   0.10995   0.73583
O          O       0.32355   0.11264   0.73583
C          C       0.60923   0.33352   0.73583
C          C       0.60923   0.27571   0.73583
C          C       0.55157   0.21886   0.73583
C          C       0.49510   0.21979   0.73583
C          C       0.49510   0.27531   0.73583
C          C       0.55157   0.33271   0.73583
N          N       0.43736   0.26881   0.73583
N          N       0.43736   0.16855   0.73583
O          O       0.32355   0.21091   0.73583
C          C       0.57046   0.68042   0.73583
C          C       0.68494   0.74201   0.73583
C          C       0.62858   0.68439   0.73583
C          C       0.74362   0.74362   0.73583
C          C       0.62860   0.62860   0.73583
C          C       0.19809   0.19150   0.70051
Ni         Ni      0.81141   0.18859   0.73583
C          C       0.94419   0.31561   0.73583
C          C       0.94294   0.25799   0.73583
C          C       0.89005   0.31958   0.73583
O          O       0.88736   0.21091   0.73583
C          C       0.66648   0.27571   0.73583
C          C       0.72429   0.33352   0.73583
C          C       0.78114   0.33271   0.73583
C          C       0.78021   0.27531   0.73583
C          C       0.72469   0.21979   0.73583
C          C       0.66729   0.21886   0.73583
N          N       0.73119   0.16855   0.73583
N          N       0.83145   0.26881   0.73583
O          O       0.78909   0.11264   0.73583
C          C       0.31958   0.89005   0.73583
C          C       0.25799   0.94294   0.73583
C          C       0.31561   0.94419   0.73583
C          C       0.25638   0.00000   0.73583
C          C       0.37140   0.00000   0.73583
C          C       0.80850   0.00659   0.70051
Fe         Fe      0.81141   0.62281   0.73583
C          C       0.68439   0.62858   0.73583
C          C       0.74201   0.68494   0.73583
C          C       0.68042   0.57046   0.73583
O          O       0.78909   0.67645   0.73583
C          C       0.72429   0.39077   0.73583
C          C       0.66648   0.39077   0.73583
C          C       0.66729   0.44843   0.73583
C          C       0.72469   0.50490   0.73583
C          C       0.78021   0.50490   0.73583
C          C       0.78114   0.44843   0.73583
N          N       0.83145   0.56264   0.73583
N          N       0.73119   0.56264   0.73583
O          O       0.88736   0.67645   0.73583
C          C       0.10995   0.42954   0.73583
C          C       0.05706   0.31506   0.73583
C          C       0.05581   0.37142   0.73583
C          C       0.00000   0.25638   0.73583
C          C       0.00000   0.37140   0.73583
C          C      -0.00659   0.80191   0.70051
Ni         Ni      0.62281   0.81141   0.73583
C          C       0.62858   0.94419   0.73583
C          C       0.68494   0.94294   0.73583
C          C       0.57046   0.89005   0.73583
O          O       0.67645   0.88736   0.73583
C          C       0.39077   0.66648   0.73583
C          C       0.39077   0.72429   0.73583
C          C       0.44843   0.78114   0.73583
C          C       0.50490   0.78021   0.73583
C          C       0.50490   0.72469   0.73583
C          C       0.44843   0.66729   0.73583
N          N       0.56264   0.73119   0.73583
N          N       0.56264   0.83145   0.73583
O          O       0.67645   0.78909   0.73583
C          C       0.42954   0.31958   0.73583
C          C       0.31506   0.25799   0.73583
C          C       0.37142   0.31561   0.73583
C          C       0.25638   0.25638   0.73583
C          C       0.37140   0.37140   0.73583
C          C       0.80191   0.80850   0.70051
Ni         Ni      0.18859   0.81141   0.73583
C          C       0.05581   0.68439   0.73583
C          C       0.05706   0.74201   0.73583
C          C       0.10995   0.68042   0.73583
O          O       0.11264   0.78909   0.73583
C          C       0.33352   0.72429   0.73583
C          C       0.27571   0.66648   0.73583
C          C       0.21886   0.66729   0.73583
C          C       0.21979   0.72469   0.73583
C          C       0.27531   0.78021   0.73583
C          C       0.33271   0.78114   0.73583
N          N       0.26881   0.83145   0.73583
N          N       0.16855   0.73119   0.73583
O          O       0.21091   0.88736   0.73583
C          C       0.68042   0.10995   0.73583
C          C       0.74201   0.05706   0.73583
C          C       0.68439   0.05581   0.73583
C          C       0.74362   0.00000   0.73583
C          C       0.62860   0.00000   0.73583
C          C       0.19150  -0.00659   0.70051
Ni         Ni      0.18859   0.37719   0.73583
C          C       0.31561   0.37142   0.73583
C          C       0.25799   0.31506   0.73583
C          C       0.31958   0.42954   0.73583
O          O       0.21091   0.32355   0.73583
C          C       0.27571   0.60923   0.73583
C          C       0.33352   0.60923   0.73583
C          C       0.33271   0.55157   0.73583
C          C       0.27531   0.49510   0.73583
C          C       0.21979   0.49510   0.73583
C          C       0.21886   0.55157   0.73583
N          N       0.16855   0.43736   0.73583
N          N       0.26881   0.43736   0.73583
O          O       0.11264   0.32355   0.73583
C          C       0.89005   0.57046   0.73583
C          C       0.94294   0.68494   0.73583
C          C       0.94419   0.62858   0.73583
C          C       0.00000   0.74362   0.73583
C          C       0.00000   0.62860   0.73583
C          C       0.00659   0.19809   0.70051
H          H       0.44886   0.82561   0.73583
H          H       0.47100   0.36578   0.73583
H          H       0.62349   0.44934   0.73583
H          H       0.02598   0.83676   0.55390
H          H      -0.05751   0.78518   0.71156
H          H       0.00698   0.82603   0.81048
H          H       0.82561   0.44886   0.73583
H          H       0.10502   0.47115   0.73583
H          H      -0.00024   0.41554   0.73583
H          H       0.63414   0.10552   0.73583
H          H       0.52885   0.89498   0.73583
H          H       0.37638   0.82549   0.73583
H          H       0.44934   0.62349   0.73583
H          H       0.41542   0.41542   0.73583
H          H       0.10552   0.63414   0.73583
H          H       0.17451   0.62362   0.73583
H          H       0.58446   0.00024   0.73583
H          H       0.20472   0.02629   0.55464
H          H       0.15645  -0.05738   0.71095
H          H       0.16911   0.00683   0.81186
H          H       0.36578   0.47100   0.73583
H          H       0.37651   0.55066   0.73583
H          H       0.17439   0.55114   0.73583
H          H       0.89498   0.52885   0.73583
H          H       0.62362   0.17451   0.73583
H          H       0.36586   0.89448   0.73583
H          H       0.41554  -0.00024   0.73583
H          H       0.63423   0.52900   0.73583
H          H       0.89448   0.36586   0.73583
H          H       0.82549   0.37638   0.73583
H          H       0.18256   0.14699   0.81658
H          H       0.15605   0.19592   0.70362
H          H       0.21700   0.18855   0.55790
H          H       0.52900   0.63423   0.73583
H          H       0.82933   0.02274   0.81422
H          H       0.80154  -0.04098   0.70502
H          H       0.84207   0.04283   0.55646
H          H       0.58458   0.58458   0.73583
H          H       0.55066   0.37651   0.73583
H          H       0.55114   0.17439   0.73583
H          H       0.02246   0.18081   0.81514
H          H      -0.04105   0.15760   0.70513
H          H       0.04290   0.21573   0.55694
H          H       0.00024   0.58446   0.73583
H          H       0.47115   0.10502   0.73583
H          H       0.79247   0.82861   0.81462
H          H       0.84365   0.80405   0.70363
H          H       0.81322   0.84137   0.55685
