data_crystal

_cell_length_a    35.25400
_cell_length_b    35.25400
_cell_length_c    8.12960
_cell_angle_alpha 81.90830
_cell_angle_beta  90.00000
_cell_angle_gamma 90.00000

_space_group_name_Hall 'P 1'
_space_group_name_H-M_alt 'P 1'

loop_
_symmetry_equiv_pos_as_xyz
 'x,y,z'

loop_
_atom_site_label
_atom_site_type_symbol
_atom_site_fract_x
_atom_site_fract_y
_atom_site_fract_z
C          C       0.03390   0.91837   0.18724
C          C       0.03379   0.95928   0.21452
C          C       0.03280   0.08175   0.30338
C          C       0.03324   0.04086   0.27602
C          C       0.06734   0.02023   0.25889
C          C       0.92963   0.01929   0.25877
C          C       0.99848   0.02020   0.26155
C          C       0.06896   0.89351   0.18654
C          C       0.09942   0.90548   0.07992
C          C       0.13222   0.88195   0.08313
C          C       0.13494   0.84568   0.19004
C          C       0.10383   0.83247   0.29140
C          C       0.07124   0.85631   0.29008
C          C       0.46445   0.58214   0.30871
C          C       0.46406   0.54129   0.28070
C          C       0.28822   0.73686   0.25263
C          C       0.28681   0.77360   0.31975
C          C       0.32519   0.71685   0.23647
N          N       0.33088   0.68059   0.31215
C          C       0.25428   0.71952   0.20134
C          C       0.42979   0.48082   0.23548
C          C       0.56781   0.39316   0.18946
C          C       0.59855   0.40477   0.08396
C          C       0.63106   0.38079   0.08793
C          C       0.63318   0.34427   0.19379
C          C       0.60172   0.33146   0.29395
C          C       0.56950   0.35582   0.29224
C          C       0.96337   0.08129   0.30334
C          C       0.96345   0.04039   0.27592
C          C       0.78532   0.23368   0.24853
C          C       0.78336   0.27052   0.31470
C          C       0.82259   0.21422   0.23255
N          N       0.82866   0.17800   0.30780
C          C       0.75163   0.21565   0.19826
C          C       0.92990   0.97943   0.23147
C          C       0.92835   0.10623   0.30424
C          C       0.89782   0.09432   0.41048
C          C       0.86528   0.11822   0.40864
C          C       0.86304   0.15509   0.30520
C          C       0.89394   0.16771   0.20125
C          C       0.92622   0.14348   0.20111
C          C       0.53305   0.41853   0.18992
C          C       0.53343   0.45939   0.21791
C          C       0.71405   0.27073   0.28435
C          C       0.71591   0.23389   0.21909
C          C       0.67702   0.29035   0.30049
N          N       0.66760   0.32135   0.19421
C          C       0.74764   0.28904   0.33261
C          C       0.56770   0.51985   0.26323
C          C       0.42973   0.60754   0.30944
C          C       0.39904   0.59601   0.41531
C          C       0.36678   0.62033   0.41315
C          C       0.36498   0.65723   0.30974
C          C       0.39605   0.66947   0.20621
C          C       0.42805   0.64482   0.20640
C          C       0.21753   0.77505   0.28851
C          C       0.21884   0.73838   0.22176
C          C       0.18081   0.79515   0.30589
N          N       0.16934   0.82288   0.18898
C          C       0.25137   0.79267   0.33782
C          C       0.92976   0.89249   0.18589
C          C       0.89913   0.90406   0.07974
C          C       0.86682   0.87984   0.08188
C          C       0.86493   0.84297   0.18545
C          C       0.89596   0.83064   0.28908
C          C       0.92801   0.85522   0.28896
C          C       0.53389   0.58174   0.30861
C          C       0.53385   0.54089   0.28063
C          C       0.71662   0.72657   0.20827
C          C       0.71835   0.76332   0.27421
C          C       0.67968   0.70684   0.19198
N          N       0.66931   0.67742   0.30406
C          C       0.75024   0.70845   0.15946
C          C       0.56750   0.48004   0.23539
C          C       0.42862   0.39396   0.18968
C          C       0.39799   0.40584   0.08402
C          C       0.36530   0.38214   0.08781
C          C       0.36301   0.34548   0.19264
C          C       0.39410   0.33275   0.29529
C          C       0.42653   0.35681   0.29351
C          C       0.21206   0.23258   0.22828
C          C       0.21496   0.26938   0.29382
C          C       0.17442   0.21378   0.21496
N          N       0.16746   0.17866   0.29873
C          C       0.24515   0.21376   0.17677
C          C       0.06760   0.98039   0.23149
C          C       0.06753   0.10712   0.30382
C          C       0.06940   0.14420   0.19947
C          C       0.10170   0.16850   0.19724
C          C       0.13286   0.15603   0.29981
C          C       0.13073   0.11952   0.40558
C          C       0.09818   0.09559   0.40982
C          C       0.46361   0.41894   0.18998
C          C       0.46364   0.45979   0.21797
C          C       0.28422   0.26832   0.25896
C          C       0.28130   0.23152   0.19320
C          C       0.32186   0.28718   0.27174
N          N       0.32832   0.32299   0.19324
C          C       0.25112   0.28702   0.31122
C          C       0.42999   0.52063   0.26338
C          C       0.56890   0.60670   0.30904
C          C       0.59952   0.59477   0.41480
C          C       0.63227   0.61837   0.41084
C          C       0.63477   0.65476   0.30444
C          C       0.60343   0.66796   0.20434
C          C       0.57094   0.64399   0.20606
C          C       0.96446   0.91789   0.18701
C          C       0.96400   0.95879   0.21443
C          C       0.78774   0.76388   0.24384
C          C       0.78590   0.72710   0.17725
C          C       0.82491   0.78356   0.25913
N          N       0.83072   0.81979   0.18354
C          C       0.75401   0.78171   0.29479
C          C       0.49928   0.60109   0.32548
C          C       0.49864   0.47999   0.23264
C          C       0.99797   0.10071   0.31974
C          C       0.99875   0.97946   0.22893
C          C       0.49823   0.39958   0.17316
C          C       0.49885   0.52069   0.26591
C          C       0.99931   0.89894   0.17080
C          C       0.81643   0.28911   0.36719
C          C       0.81426   0.32498   0.43461
C          C       0.77931   0.34303   0.45211
C          C       0.74629   0.32538   0.40198
C          C       0.68261   0.21501   0.17100
C          C       0.68456   0.17952   0.10076
C          C       0.71955   0.16230   0.07570
C          C       0.75278   0.18010   0.12316
C          C       0.81901   0.70867   0.12430
C          C       0.81694   0.67281   0.05671
C          C       0.78205   0.65460   0.03961
C          C       0.74899   0.67210   0.09021
C          C       0.32016   0.79158   0.37278
C          C       0.31853   0.82741   0.44073
C          C       0.28385   0.84605   0.45795
C          C       0.25057   0.82902   0.40716
C          C       0.18526   0.72014   0.17303
C          C       0.18666   0.68467   0.10242
C          C       0.22138   0.66683   0.07778
C          C       0.25487   0.68400   0.12596
C          C       0.18235   0.28869   0.34673
C          C       0.18537   0.32422   0.41613
C          C       0.22077   0.34103   0.43622
C          C       0.25335   0.32267   0.38533
C          C       0.31386   0.21233   0.13910
C          C       0.31081   0.17669   0.07053
C          C       0.27544   0.15961   0.05260
C          C       0.24291   0.17789   0.10422
C          C       0.68500   0.78204   0.32260
C          C       0.68684   0.81750   0.39307
C          C       0.72177   0.83486   0.41801
C          C       0.75505   0.81723   0.37014
H          H       0.15603   0.89155   0.00254
H          H       0.60211   0.30355   0.37083
H          H       0.65847   0.16601   0.06690
H          H       0.65497   0.22771   0.18772
H          H       0.28276   0.87295   0.50922
H          H       0.72099   0.13586   0.02098
H          H       0.99952   0.86940   0.14567
H          H       0.91437   0.03490   0.15399
H          H       0.91349   0.02018   0.37237
H          H       0.60411   0.69587   0.12752
H          H       0.84406   0.27589   0.35612
H          H       0.71894   0.33901   0.41490
H          H       0.22304   0.36757   0.48973
H          H       0.49806   0.37010   0.14732
H          H       0.84761   0.76850   0.33215
H          H       0.22238   0.64040   0.02284
H          H       0.84291   0.65977   0.01854
H          H       0.54680   0.65382   0.12790
H          H       0.99777   0.13024   0.34495
H          H       0.22345   0.84313   0.41950
H          H       0.15783   0.73330   0.18948
H          H       0.77778   0.36995   0.50307
H          H       0.49946   0.63057   0.35137
H          H       0.16036   0.67164   0.06791
H          H       0.84020   0.33815   0.47233
H          H       0.34466   0.84010   0.47912
H          H       0.34179   0.22494   0.14987
H          H       0.34758   0.77794   0.36176
H          H       0.28203   0.67057   0.10682
H          H       0.72169   0.65834   0.07775
H          H       0.15976   0.33807   0.45322
H          H       0.28107   0.33528   0.40139
H          H       0.15440   0.27625   0.33437
H          H       0.84660   0.72200   0.13512
H          H       0.78016   0.16714   0.10363
H          H       0.59746   0.43175   0.00040
H          H       0.10474   0.80465   0.36890
H          H       0.40262   0.46649   0.22765
H          H       0.04723   0.84645   0.36896
H          H       0.65514   0.39023   0.00870
H          H       0.34788   0.73171   0.16262
H          H       0.33639   0.16296   0.03234
H          H       0.27317   0.13293   0.00017
H          H       0.39327   0.30510   0.37414
H          H       0.45210   0.65416   0.12678
H          H       0.40297   0.53523   0.27135
H          H       0.89540   0.80292   0.36745
H          H       0.16327   0.78700   0.41544
H          H       0.95203   0.84584   0.36863
H          H       0.84271   0.88935   0.00299
H          H       0.39556   0.69719   0.12782
H          H       0.08341   0.02132   0.37253
H          H       0.08245   0.03606   0.15418
H          H       0.66105   0.71656   0.08769
H          H       0.59452   0.46543   0.22760
H          H       0.39930   0.43282   0.00049
H          H       0.34120   0.39189   0.00927
H          H       0.59814   0.56783   0.49852
H          H       0.45060   0.34714   0.37240
H          H       0.15238   0.22858   0.13684
H          H       0.08370   0.97952   0.11777
H          H       0.08290   0.96477   0.33613
H          H       0.04528   0.15366   0.12050
H          H       0.10235   0.19612   0.11810
H          H       0.15484   0.11004   0.48456
H          H       0.09701   0.06870   0.49400
H          H       0.34436   0.27188   0.34520
H          H       0.65623   0.60874   0.49045
H          H       0.84516   0.22944   0.15927
H          H       0.54528   0.34624   0.37036
H          H       0.89309   0.19541   0.12280
H          H       0.84126   0.10846   0.48765
H          H       0.91479   0.96361   0.33620
H          H       0.91384   0.97832   0.11783
H          H       0.89908   0.06719   0.49296
H          H       0.95014   0.15310   0.12122
H          H       0.65751   0.27932   0.39967
H          H       0.59487   0.53417   0.27110
H          H       0.34264   0.61086   0.49194
H          H       0.39995   0.56886   0.49776
H          H       0.21522   0.16506   0.08997
H          H       0.66070   0.83089   0.42722
H          H       0.72312   0.86128   0.47294
H          H       0.65740   0.76924   0.30595
H          H       0.78238   0.83030   0.38952
H          H       0.09788   0.93240   0.99610
H          H       0.78060   0.62768   0.98861
H          H       0.90014   0.93118   0.99709
C          C       0.03390   0.91837   0.68724
C          C       0.03379   0.95928   0.71452
C          C       0.03280   0.08175   0.80337
C          C       0.03324   0.04086   0.77602
C          C       0.06734   0.02023   0.75889
C          C       0.92963   0.01929   0.75877
C          C       0.99848   0.02020   0.76154
C          C       0.06896   0.89351   0.68655
C          C       0.09942   0.90548   0.57992
C          C       0.13222   0.88195   0.58313
C          C       0.13494   0.84568   0.69004
C          C       0.10383   0.83247   0.79139
C          C       0.07124   0.85631   0.79007
C          C       0.46445   0.58214   0.80871
C          C       0.46406   0.54129   0.78070
C          C       0.28822   0.73686   0.75263
C          C       0.28681   0.77360   0.81975
C          C       0.32519   0.71685   0.73647
N          N       0.33088   0.68059   0.81215
C          C       0.25428   0.71952   0.70134
C          C       0.42979   0.48082   0.73548
C          C       0.56781   0.39316   0.68946
C          C       0.59855   0.40477   0.58396
C          C       0.63106   0.38079   0.58793
C          C       0.63318   0.34427   0.69379
C          C       0.60172   0.33146   0.79395
C          C       0.56950   0.35582   0.79224
C          C       0.96337   0.08129   0.80334
C          C       0.96345   0.04039   0.77592
C          C       0.78532   0.23368   0.74853
C          C       0.78336   0.27052   0.81470
C          C       0.82259   0.21422   0.73255
N          N       0.82866   0.17800   0.80780
C          C       0.75163   0.21565   0.69827
C          C       0.92990   0.97943   0.73147
C          C       0.92835   0.10623   0.80424
C          C       0.89782   0.09432   0.91048
C          C       0.86528   0.11822   0.90865
C          C       0.86304   0.15509   0.80520
C          C       0.89394   0.16771   0.70125
C          C       0.92622   0.14348   0.70111
C          C       0.53305   0.41853   0.68992
C          C       0.53343   0.45939   0.71791
C          C       0.71405   0.27073   0.78435
C          C       0.71591   0.23389   0.71908
C          C       0.67702   0.29035   0.80049
N          N       0.66760   0.32135   0.69421
C          C       0.74764   0.28904   0.83261
C          C       0.56770   0.51985   0.76323
C          C       0.42973   0.60754   0.80944
C          C       0.39904   0.59601   0.91531
C          C       0.36678   0.62033   0.91316
C          C       0.36498   0.65723   0.80975
C          C       0.39605   0.66947   0.70621
C          C       0.42805   0.64482   0.70640
C          C       0.21753   0.77505   0.78851
C          C       0.21884   0.73838   0.72176
C          C       0.18081   0.79515   0.80588
N          N       0.16934   0.82288   0.68898
C          C       0.25137   0.79267   0.83782
C          C       0.92976   0.89249   0.68589
C          C       0.89913   0.90406   0.57974
C          C       0.86682   0.87984   0.58188
C          C       0.86493   0.84297   0.68545
C          C       0.89596   0.83064   0.78908
C          C       0.92801   0.85522   0.78896
C          C       0.53389   0.58174   0.80861
C          C       0.53385   0.54089   0.78063
C          C       0.71662   0.72657   0.70827
C          C       0.71835   0.76332   0.77421
C          C       0.67968   0.70684   0.69198
N          N       0.66931   0.67742   0.80406
C          C       0.75024   0.70845   0.65946
C          C       0.56750   0.48004   0.73539
C          C       0.42862   0.39396   0.68968
C          C       0.39799   0.40584   0.58402
C          C       0.36530   0.38214   0.58781
C          C       0.36301   0.34548   0.69264
C          C       0.39410   0.33275   0.79529
C          C       0.42653   0.35681   0.79351
C          C       0.21206   0.23258   0.72828
C          C       0.21496   0.26938   0.79382
C          C       0.17442   0.21378   0.71496
N          N       0.16746   0.17866   0.79873
C          C       0.24515   0.21376   0.67677
C          C       0.06760   0.98039   0.73149
C          C       0.06753   0.10712   0.80382
C          C       0.06940   0.14420   0.69947
C          C       0.10170   0.16850   0.69724
C          C       0.13286   0.15603   0.79981
C          C       0.13073   0.11952   0.90558
C          C       0.09818   0.09559   0.90982
C          C       0.46361   0.41894   0.68998
C          C       0.46364   0.45979   0.71797
C          C       0.28422   0.26832   0.75896
C          C       0.28130   0.23152   0.69320
C          C       0.32186   0.28718   0.77174
N          N       0.32832   0.32299   0.69324
C          C       0.25112   0.28702   0.81122
C          C       0.42999   0.52063   0.76338
C          C       0.56890   0.60670   0.80904
C          C       0.59952   0.59477   0.91480
C          C       0.63227   0.61837   0.91084
C          C       0.63477   0.65476   0.80444
C          C       0.60343   0.66796   0.70434
C          C       0.57094   0.64399   0.70607
C          C       0.96446   0.91789   0.68701
C          C       0.96400   0.95879   0.71443
C          C       0.78774   0.76388   0.74384
C          C       0.78590   0.72710   0.67724
C          C       0.82491   0.78356   0.75913
N          N       0.83072   0.81979   0.68354
C          C       0.75401   0.78171   0.79479
C          C       0.49928   0.60109   0.82548
C          C       0.49864   0.47999   0.73264
C          C       0.99797   0.10071   0.81974
C          C       0.99875   0.97946   0.72893
C          C       0.49823   0.39958   0.67316
C          C       0.49885   0.52069   0.76591
C          C       0.99931   0.89894   0.67080
C          C       0.81643   0.28911   0.86719
C          C       0.81426   0.32498   0.93460
C          C       0.77931   0.34303   0.95211
C          C       0.74629   0.32538   0.90198
C          C       0.68261   0.21501   0.67100
C          C       0.68456   0.17952   0.60076
C          C       0.71955   0.16230   0.57570
C          C       0.75278   0.18010   0.62316
C          C       0.81901   0.70867   0.62430
C          C       0.81694   0.67281   0.55671
C          C       0.78205   0.65460   0.53961
C          C       0.74899   0.67210   0.59021
C          C       0.32016   0.79158   0.87278
C          C       0.31853   0.82741   0.94073
C          C       0.28385   0.84605   0.95795
C          C       0.25057   0.82902   0.90717
C          C       0.18526   0.72014   0.67303
C          C       0.18666   0.68467   0.60242
C          C       0.22138   0.66683   0.57778
C          C       0.25487   0.68400   0.62596
C          C       0.18235   0.28869   0.84673
C          C       0.18537   0.32422   0.91612
C          C       0.22077   0.34103   0.93622
C          C       0.25335   0.32267   0.88533
C          C       0.31386   0.21233   0.63910
C          C       0.31081   0.17669   0.57052
C          C       0.27544   0.15961   0.55259
C          C       0.24291   0.17789   0.60421
C          C       0.68500   0.78204   0.82261
C          C       0.68684   0.81750   0.89307
C          C       0.72177   0.83486   0.91800
C          C       0.75505   0.81723   0.87014
H          H       0.95203   0.84584   0.86863
H          H       0.89540   0.80292   0.86745
H          H       0.66105   0.71656   0.58769
H          H       0.59452   0.46543   0.72760
H          H       0.84271   0.88935   0.50299
H          H       0.65751   0.27932   0.89967
H          H       0.90014   0.93118   0.49709
H          H       0.39930   0.43282   0.50049
H          H       0.34120   0.39189   0.50927
H          H       0.08341   0.02132   0.87253
H          H       0.08245   0.03606   0.65418
H          H       0.39327   0.30510   0.87414
H          H       0.45060   0.34714   0.87240
H          H       0.16327   0.78699   0.91542
H          H       0.15238   0.22858   0.63684
H          H       0.45210   0.65416   0.62678
H          H       0.08370   0.97952   0.61777
H          H       0.08290   0.96477   0.83613
H          H       0.39556   0.69719   0.62782
H          H       0.04528   0.15366   0.62050
H          H       0.10235   0.19612   0.61810
H          H       0.34264   0.61086   0.99195
H          H       0.15484   0.11004   0.98456
H          H       0.09701   0.06870   0.99400
H          H       0.39995   0.56886   0.99775
H          H       0.59487   0.53417   0.77110
H          H       0.89309   0.19541   0.62281
H          H       0.34436   0.27188   0.84520
H          H       0.40297   0.53523   0.77134
H          H       0.59814   0.56783   0.99852
H          H       0.65623   0.60874   0.99045
H          H       0.60411   0.69587   0.62751
H          H       0.54680   0.65382   0.62792
H          H       0.84761   0.76850   0.83215
H          H       0.91437   0.03490   0.65399
H          H       0.91349   0.02018   0.87236
H          H       0.49946   0.63057   0.85137
H          H       0.99777   0.13024   0.84495
H          H       0.49806   0.37010   0.64732
H          H       0.99952   0.86940   0.64567
H          H       0.84406   0.27589   0.85613
H          H       0.84020   0.33815   0.97231
H          H       0.71894   0.33901   0.91490
H          H       0.65497   0.22771   0.68773
H          H       0.65847   0.16601   0.56690
H          H       0.72099   0.13586   0.52098
H          H       0.78016   0.16714   0.60362
H          H       0.84660   0.72200   0.63513
H          H       0.84291   0.65977   0.51854
H          H       0.78060   0.62768   0.48861
H          H       0.72169   0.65834   0.57775
H          H       0.34758   0.77794   0.86176
H          H       0.34466   0.84010   0.97912
H          H       0.22345   0.84313   0.91952
H          H       0.15783   0.73330   0.68948
H          H       0.16036   0.67164   0.56791
H          H       0.22238   0.64040   0.52284
H          H       0.28203   0.67057   0.60682
H          H       0.15440   0.27625   0.83437
H          H       0.15976   0.33807   0.95320
H          H       0.22304   0.36757   0.98974
H          H       0.28107   0.33528   0.90139
H          H       0.34179   0.22494   0.64988
H          H       0.33639   0.16297   0.53233
H          H       0.27317   0.13293   0.50016
H          H       0.21521   0.16506   0.58996
H          H       0.65740   0.76924   0.80597
H          H       0.66070   0.83089   0.92722
H          H       0.72312   0.86128   0.97292
H          H       0.78238   0.83030   0.88953
H          H       0.95014   0.15310   0.62123
H          H       0.84126   0.10846   0.98767
H          H       0.89908   0.06719   0.99295
H          H       0.34788   0.73171   0.66263
H          H       0.04723   0.84645   0.86894
H          H       0.15603   0.89155   0.50254
H          H       0.09788   0.93240   0.49610
H          H       0.10474   0.80465   0.86889
H          H       0.59746   0.43175   0.50040
H          H       0.40262   0.46649   0.72765
H          H       0.91479   0.96361   0.83620
H          H       0.91384   0.97832   0.61783
H          H       0.65514   0.39023   0.50870
H          H       0.54528   0.34624   0.87036
H          H       0.60211   0.30355   0.87082
H          H       0.84516   0.22944   0.65927
H          H       0.77778   0.36995   0.00308
H          H       0.28276   0.87295   0.00922
