data_crystal

_cell_length_a    23.43310
_cell_length_b    23.43310
_cell_length_c    21.56190
_cell_angle_alpha 90.00000
_cell_angle_beta  90.00000
_cell_angle_gamma 90.00000

_space_group_name_Hall 'P 1'
_space_group_name_H-M_alt 'P 1'

loop_
_symmetry_equiv_pos_as_xyz
 'x,y,z'

loop_
_atom_site_label
_atom_site_type_symbol
_atom_site_fract_x
_atom_site_fract_y
_atom_site_fract_z
C          C       0.02287   0.02056   0.10509
C          C       0.00000   0.00000   0.00000
C          C       0.80398   0.63009   0.40443
C          C       0.19602   0.36991   0.40443
C          C       0.69602   0.86991   0.59557
C          C       0.30398   0.13009   0.59557
C          C       0.19567   0.31113   0.40412
C          C       0.80433   0.68887   0.40412
C          C       0.30433   0.18887   0.59588
C          C       0.69567   0.81113   0.59588
C          C       0.22271   0.28007   0.45169
C          C       0.77729   0.71993   0.45169
C          C       0.27729   0.21993   0.54831
C          C       0.72271   0.78007   0.54831
C          C       0.77692   0.60103   0.45194
C          C       0.22308   0.39897   0.45194
C          C       0.72308   0.89897   0.54806
C          C       0.27692   0.10103   0.54806
C          C       0.24998   0.36944   0.49945
C          C       0.75002   0.63056   0.49945
C          C       0.25002   0.13056   0.50055
C          C       0.74998   0.86944   0.50055
C          C       0.25038   0.30979   0.50024
C          C       0.74962   0.69021   0.50024
C          C       0.24962   0.19021   0.49976
C          C       0.75038   0.80979   0.49976
C          C       0.61215   0.64407   0.64443
C          C       0.38785   0.35593   0.64443
C          C       0.88785   0.85593   0.35557
C          C       0.11215   0.14407   0.35557
C          C       0.63839   0.67192   0.59482
C          C       0.36161   0.32808   0.59482
C          C       0.86161   0.82808   0.40518
C          C       0.13839   0.17192   0.40518
N          N       0.61245   0.60734   0.75049
N          N       0.38755   0.39266   0.75049
N          N       0.88755   0.89266   0.24951
N          N       0.11245   0.10734   0.24951
C          C       0.62562   0.61422   0.80870
C          C       0.37438   0.38578   0.80870
C          C       0.87438   0.88578   0.19130
C          C       0.12562   0.11422   0.19130
C          C       0.64148   0.63408   0.69978
C          C       0.35852   0.36592   0.69978
C          C       0.85852   0.86592   0.30022
C          C       0.14148   0.13408   0.30022
C          C       0.69852   0.65019   0.70403
C          C       0.30148   0.34981   0.70403
C          C       0.80148   0.84981   0.29597
C          C       0.19852   0.15019   0.29597
C          C       0.72479   0.67788   0.65451
C          C       0.27521   0.32212   0.65451
C          C       0.77521   0.82212   0.34549
C          C       0.22479   0.17788   0.34549
C          C       0.72238   0.72032   0.54849
C          C       0.27762   0.27968   0.54849
C          C       0.77762   0.77968   0.45151
C          C       0.22238   0.22032   0.45151
C          C       0.57917   0.57071   0.97046
C          C       0.42083   0.42929   0.97046
C          C       0.92083   0.92929   0.02954
C          C       0.07917   0.07071   0.02954
C          C       0.60894   0.59763   0.92188
C          C       0.39106   0.40237   0.92188
C          C       0.89106   0.90237   0.07812
C          C       0.10894   0.09763   0.07812
C          C       0.53653   0.53264   0.95583
C          C       0.46347   0.46736   0.95583
C          C       0.96347   0.96736   0.04417
C          C       0.03653   0.03264   0.04417
C          C       0.59448   0.58541   0.85910
C          C       0.40552   0.41459   0.85910
C          C       0.90552   0.91459   0.14090
C          C       0.09448   0.08541   0.14090
C          C       0.55100   0.54633   0.84558
C          C       0.44900   0.45367   0.84558
C          C       0.94900   0.95367   0.15442
C          C       0.05100   0.04633   0.15442
C          C       0.52287   0.52056   0.89491
C          C       0.47713   0.47944   0.89491
C          C       0.97713   0.97944   0.10509
O          O       0.65291   0.63672   0.93311
O          O       0.34709   0.36328   0.93311
O          O       0.84709   0.86328   0.06689
O          O       0.15291   0.13672   0.06689
C          C       0.30533   0.31063   0.60003
C          C       0.69467   0.68937   0.60003
C          C       0.19467   0.18937   0.39997
C          C       0.80533   0.81063   0.39997
C          C       0.33185   0.35045   0.99586
C          C       0.66815   0.64955   0.99586
C          C       0.16815   0.14955   0.00414
C          C       0.83185   0.85045   0.00414
C          C       0.50000   0.50000   1.00000
H          H       0.67426   0.78843   0.63331
H          H       0.66099   0.64233   0.82055
H          H       0.83901   0.85767   0.17945
H          H       0.88527   0.82011   0.44778
H          H       0.16098   0.14233   0.17945
H          H       0.33902   0.35767   0.82055
H          H       0.11473   0.17989   0.44778
H          H       0.82496   0.60652   0.36735
H          H       0.72327   0.94544   0.54796
H          H       0.22326   0.44544   0.45204
H          H       0.17504   0.39348   0.36735
H          H       0.17426   0.28843   0.36669
H          H       0.32574   0.21157   0.63331
H          H       0.77673   0.55456   0.45204
H          H       0.27674   0.05456   0.54796
H          H       0.32496   0.10652   0.63265
H          H       0.82574   0.71157   0.36669
H          H       0.72900   0.60701   0.53652
H          H       0.22900   0.10701   0.46348
H          H       0.77100   0.89299   0.46348
H          H       0.56809   0.62989   0.63991
H          H       0.43191   0.37011   0.63991
H          H       0.93191   0.87011   0.36009
H          H       0.06809   0.12990   0.36009
H          H       0.73068   0.80929   0.34168
H          H       0.57983   0.41033   0.98135
H          H       0.70283   0.68048   0.99625
H          H       0.20283   0.18048   0.00375
H          H       0.33272   0.63135   0.98006
H          H       0.38935   0.68187   0.98087
H          H       0.27100   0.39299   0.53652
H          H       0.61473   0.67989   0.55222
H          H       0.77739   0.85886   0.25392
H          H       0.67504   0.89348   0.63265
H          H       0.38527   0.32011   0.55222
H          H       0.27739   0.35886   0.74608
H          H       0.72261   0.64114   0.74608
H          H       0.22261   0.14114   0.25392
H          H       0.23068   0.30928   0.65832
H          H       0.76932   0.69071   0.65832
H          H       0.26932   0.19071   0.34168
H          H       0.42017   0.58967   0.98135
H          H       0.96042   0.96357   0.20218
H          H       0.03958   0.03644   0.20218
H          H       0.46042   0.46357   0.79782
H          H       0.53958   0.53643   0.79782
H          H       0.29717   0.31952   0.99625
H          H       0.79717   0.81952   0.00375
H          H       0.66728   0.36865   0.98006
H          H       0.61065   0.31813   0.98087
H          H       0.91033   0.92017   0.98135
H          H       0.08967   0.07983   0.98135
H          H       0.13135   0.16728   0.98006
H          H       0.18187   0.11065   0.98087
H          H       0.86865   0.83272   0.98006
H          H       0.81813   0.88935   0.98087
H          H       0.07983   0.91033   0.01865
H          H       0.11065   0.81813   0.01913
H          H       0.16728   0.86865   0.01994
H          H       0.88935   0.18187   0.01913
H          H       0.83272   0.13135   0.01994
H          H       0.92017   0.08967   0.01865
C          C       0.02056   0.97713   0.89491
C          C       0.86991   0.30398   0.40443
C          C       0.13009   0.69602   0.40443
C          C       0.63009   0.19602   0.59557
C          C       0.36991   0.80398   0.59557
C          C       0.18887   0.69567   0.40412
C          C       0.81113   0.30433   0.40412
C          C       0.31113   0.80433   0.59588
C          C       0.68887   0.19567   0.59588
C          C       0.21993   0.72271   0.45169
C          C       0.78007   0.27729   0.45169
C          C       0.28007   0.77729   0.54831
C          C       0.71993   0.22271   0.54831
C          C       0.10103   0.72308   0.45194
C          C       0.89897   0.27692   0.45194
C          C       0.39897   0.77692   0.54806
C          C       0.60103   0.22308   0.54806
C          C       0.86944   0.25002   0.49945
C          C       0.13056   0.74998   0.49945
C          C       0.63056   0.24998   0.50055
C          C       0.36944   0.75002   0.50055
C          C       0.80979   0.24962   0.50024
C          C       0.19021   0.75038   0.50024
C          C       0.69021   0.25038   0.49976
C          C       0.30979   0.74962   0.49976
C          C       0.14407   0.88785   0.64443
C          C       0.85593   0.11215   0.64443
C          C       0.35593   0.61215   0.35557
C          C       0.64407   0.38785   0.35557
C          C       0.17192   0.86161   0.59482
C          C       0.82808   0.13839   0.59482
C          C       0.32808   0.63839   0.40518
C          C       0.67192   0.36161   0.40518
N          N       0.10734   0.88755   0.75049
N          N       0.89266   0.11245   0.75049
N          N       0.39266   0.61245   0.24951
N          N       0.60734   0.38755   0.24951
C          C       0.11422   0.87438   0.80870
C          C       0.88578   0.12562   0.80870
C          C       0.38578   0.62562   0.19130
C          C       0.61422   0.37438   0.19130
C          C       0.13408   0.85852   0.69978
C          C       0.86592   0.14148   0.69978
C          C       0.36592   0.64148   0.30022
C          C       0.63408   0.35852   0.30022
C          C       0.15019   0.80148   0.70403
C          C       0.84981   0.19852   0.70403
C          C       0.34981   0.69852   0.29597
C          C       0.65019   0.30148   0.29597
C          C       0.17788   0.77521   0.65451
C          C       0.82212   0.22479   0.65451
C          C       0.32212   0.72479   0.34549
C          C       0.67788   0.27521   0.34549
C          C       0.22032   0.77762   0.54849
C          C       0.77968   0.22238   0.54849
C          C       0.27968   0.72238   0.45151
C          C       0.72032   0.27762   0.45151
C          C       0.92929   0.07917   0.97046
C          C       0.07071   0.92083   0.97046
C          C       0.57071   0.42083   0.02954
C          C       0.42929   0.57917   0.02954
C          C       0.90237   0.10894   0.92188
C          C       0.09763   0.89106   0.92188
C          C       0.59763   0.39106   0.07812
C          C       0.40237   0.60894   0.07812
C          C       0.96736   0.03653   0.95583
C          C       0.03264   0.96347   0.95583
C          C       0.53264   0.46347   0.04417
C          C       0.46736   0.53653   0.04417
C          C       0.91459   0.09448   0.85910
C          C       0.08541   0.90552   0.85910
C          C       0.58541   0.40552   0.14090
C          C       0.41459   0.59448   0.14090
C          C       0.95367   0.05100   0.84558
C          C       0.04633   0.94900   0.84558
C          C       0.54633   0.44900   0.15442
C          C       0.45367   0.55100   0.15442
C          C       0.97944   0.02287   0.89491
C          C       0.52056   0.47713   0.10509
C          C       0.47944   0.52287   0.10509
O          O       0.86328   0.15291   0.93311
O          O       0.13672   0.84709   0.93311
O          O       0.63672   0.34709   0.06689
O          O       0.36328   0.65291   0.06689
C          C       0.18937   0.80533   0.60003
C          C       0.81063   0.19467   0.60003
C          C       0.31063   0.69467   0.39997
C          C       0.68937   0.30533   0.39997
C          C       0.14955   0.83185   0.99586
C          C       0.85045   0.16815   0.99586
C          C       0.35045   0.66815   0.00414
C          C       0.64955   0.33185   0.00414
H          H       0.35767   0.66099   0.17945
H          H       0.64233   0.33902   0.17945
H          H       0.85767   0.16098   0.82055
H          H       0.14233   0.83901   0.82055
H          H       0.60652   0.17504   0.63265
H          H       0.55456   0.22326   0.54796
H          H       0.78843   0.32574   0.36669
H          H       0.89299   0.22900   0.53652
H          H       0.44544   0.77673   0.54796
H          H       0.89348   0.32496   0.36735
H          H       0.39348   0.82496   0.63265
H          H       0.94544   0.27674   0.45204
H          H       0.21157   0.67426   0.36669
H          H       0.60701   0.27100   0.46348
H          H       0.39299   0.72900   0.46348
H          H       0.12990   0.93191   0.63991
H          H       0.87011   0.06809   0.63991
H          H       0.37011   0.56809   0.36009
H          H       0.62989   0.43191   0.36009
H          H       0.17989   0.88527   0.55222
H          H       0.67989   0.38527   0.44778
H          H       0.58967   0.57983   0.01865
H          H       0.46357   0.53958   0.20218
H          H       0.68187   0.61065   0.01913
H          H       0.63135   0.66728   0.01994
H          H       0.18048   0.79717   0.99625
H          H       0.81952   0.20283   0.99625
H          H       0.31952   0.70283   0.00375
H          H       0.28843   0.82574   0.63331
H          H       0.10701   0.77100   0.53652
H          H       0.71157   0.17426   0.63331
H          H       0.10652   0.67504   0.36735
H          H       0.05456   0.72327   0.45204
H          H       0.32011   0.61473   0.44778
H          H       0.35886   0.72261   0.25392
H          H       0.14114   0.77739   0.74608
H          H       0.30928   0.76932   0.34168
H          H       0.82011   0.11473   0.55222
H          H       0.64114   0.27739   0.25392
H          H       0.85886   0.22261   0.74608
H          H       0.80929   0.26932   0.65832
H          H       0.19071   0.73068   0.65832
H          H       0.41033   0.42017   0.01865
H          H       0.69071   0.23068   0.34168
H          H       0.03644   0.96042   0.79782
H          H       0.96357   0.03958   0.79782
H          H       0.53643   0.46042   0.20218
H          H       0.31813   0.38935   0.01913
H          H       0.36865   0.33272   0.01994
H          H       0.68048   0.29717   0.00375
