data_crystal

_cell_length_a    30.89000
_cell_length_b    30.89000
_cell_length_c    6.88000
_cell_angle_alpha 90.00000
_cell_angle_beta  90.00000
_cell_angle_gamma 120.00000

_space_group_name_Hall 'P 1'
_space_group_name_H-M_alt 'P 1'

loop_
_symmetry_equiv_pos_as_xyz
 'x,y,z'

loop_
_atom_site_label
_atom_site_type_symbol
_atom_site_fract_x
_atom_site_fract_y
_atom_site_fract_z
C          C       0.42169   0.52504   0.25000
C          C       0.47496   0.89665   0.25000
C          C       0.10335   0.57831   0.25000
C          C       0.57831   0.47496   0.25000
C          C       0.52504   0.10335   0.25000
C          C       0.89665   0.42169   0.25000
N          N       0.39392   0.58377   0.25000
N          N       0.41623   0.81015   0.25000
N          N       0.18985   0.60608   0.25000
N          N       0.60608   0.41623   0.25000
N          N       0.58377   0.18985   0.25000
N          N       0.81015   0.39392   0.25000
C          C       0.31647   0.61547   0.25000
C          C       0.38453   0.70100   0.25000
C          C       0.29900   0.68353   0.25000
C          C       0.68353   0.38453   0.25000
C          C       0.61547   0.29900   0.25000
C          C       0.70100   0.31647   0.25000
C          C       0.36824   0.64953   0.25000
C          C       0.35047   0.71871   0.25000
C          C       0.28129   0.63176   0.25000
C          C       0.63176   0.35047   0.25000
C          C       0.64953   0.28129   0.25000
C          C       0.71871   0.36824   0.25000
C          C       0.40646   0.63309   0.25000
C          C       0.36691   0.77337   0.25000
C          C       0.22663   0.59354   0.25000
C          C       0.59354   0.36691   0.25000
C          C       0.63309   0.22663   0.25000
C          C       0.77337   0.40646   0.25000
C          C       0.46206   0.51268   0.25000
C          C       0.48732   0.94938   0.25000
C          C       0.05062   0.53794   0.25000
C          C       0.53794   0.48732   0.25000
C          C       0.51268   0.05062   0.25000
C          C       0.94938   0.46206   0.25000
C          C       0.44978   0.46242   0.25000
C          C       0.53758   0.98736   0.25000
C          C       0.01264   0.55022   0.25000
C          C       0.55022   0.53758   0.25000
C          C       0.46242   0.01264   0.25000
C          C       0.98736   0.44978   0.25000
C          C       0.51266   0.55023   0.25000
C          C       0.44977   0.96243   0.25000
C          C       0.03757   0.48734   0.25000
C          C       0.48734   0.44977   0.25000
C          C       0.55023   0.03757   0.25000
C          C       0.96243   0.51266   0.25000
O          O       0.45069   0.66494   0.25000
O          O       0.33506   0.78575   0.25000
O          O       0.21425   0.54931   0.25000
O          O       0.54931   0.33506   0.25000
O          O       0.66494   0.21425   0.25000
O          O       0.78575   0.45069   0.25000
N          N       0.43174   0.57112   0.25000
N          N       0.42888   0.86062   0.25000
N          N       0.13938   0.56826   0.25000
N          N       0.56826   0.42888   0.25000
N          N       0.57112   0.13938   0.25000
N          N       0.86062   0.43174   0.25000
H          H       0.38313   0.49498   0.25000
H          H       0.50502   0.88815   0.25000
H          H       0.11185   0.61687   0.25000
H          H       0.61687   0.50502   0.25000
H          H       0.49498   0.11185   0.25000
H          H       0.88815   0.38313   0.25000
H          H       0.35686   0.55500   0.25000
H          H       0.44500   0.80186   0.25000
H          H       0.19814   0.64314   0.25000
H          H       0.64314   0.44500   0.25000
H          H       0.55500   0.19814   0.25000
H          H       0.80186   0.35686   0.25000
H          H       0.30260   0.57586   0.25000
H          H       0.42414   0.72674   0.25000
H          H       0.27326   0.69740   0.25000
H          H       0.69740   0.42414   0.25000
H          H       0.57586   0.27326   0.25000
H          H       0.72674   0.30260   0.25000
H          H       0.41105   0.43287   0.25000
H          H       0.56713   0.97818   0.25000
H          H       0.02182   0.58895   0.25000
H          H       0.58895   0.56713   0.25000
H          H       0.43287   0.02182   0.25000
H          H       0.97818   0.41105   0.25000
H          H       0.52326   0.58935   0.25000
H          H       0.41065   0.93391   0.25000
H          H       0.06609   0.47674   0.25000
H          H       0.47674   0.41065   0.25000
H          H       0.58935   0.06609   0.25000
H          H       0.93391   0.52326   0.25000
C          C       0.42169   0.52504   0.75000
C          C       0.47496   0.89665   0.75000
C          C       0.10335   0.57831   0.75000
C          C       0.57831   0.47496   0.75000
C          C       0.52504   0.10335   0.75000
C          C       0.89665   0.42169   0.75000
N          N       0.39392   0.58377   0.75000
N          N       0.41623   0.81015   0.75000
N          N       0.18985   0.60608   0.75000
N          N       0.60608   0.41623   0.75000
N          N       0.58377   0.18985   0.75000
N          N       0.81015   0.39392   0.75000
C          C       0.31647   0.61547   0.75000
C          C       0.38453   0.70100   0.75000
C          C       0.29900   0.68353   0.75000
C          C       0.68353   0.38453   0.75000
C          C       0.61547   0.29900   0.75000
C          C       0.70100   0.31647   0.75000
C          C       0.36824   0.64953   0.75000
C          C       0.35047   0.71871   0.75000
C          C       0.28129   0.63176   0.75000
C          C       0.63176   0.35047   0.75000
C          C       0.64953   0.28129   0.75000
C          C       0.71871   0.36824   0.75000
C          C       0.40646   0.63309   0.75000
C          C       0.36691   0.77337   0.75000
C          C       0.22663   0.59354   0.75000
C          C       0.59354   0.36691   0.75000
C          C       0.63309   0.22663   0.75000
C          C       0.77337   0.40646   0.75000
C          C       0.46206   0.51268   0.75000
C          C       0.48732   0.94938   0.75000
C          C       0.05062   0.53794   0.75000
C          C       0.53794   0.48732   0.75000
C          C       0.51268   0.05062   0.75000
C          C       0.94938   0.46206   0.75000
C          C       0.44978   0.46242   0.75000
C          C       0.53758   0.98736   0.75000
C          C       0.01264   0.55022   0.75000
C          C       0.55022   0.53758   0.75000
C          C       0.46242   0.01264   0.75000
C          C       0.98736   0.44978   0.75000
C          C       0.51266   0.55023   0.75000
C          C       0.44977   0.96243   0.75000
C          C       0.03757   0.48734   0.75000
C          C       0.48734   0.44977   0.75000
C          C       0.55023   0.03757   0.75000
C          C       0.96243   0.51266   0.75000
O          O       0.45069   0.66494   0.75000
O          O       0.33506   0.78575   0.75000
O          O       0.21425   0.54931   0.75000
O          O       0.54931   0.33506   0.75000
O          O       0.66494   0.21425   0.75000
O          O       0.78575   0.45069   0.75000
N          N       0.43174   0.57112   0.75000
N          N       0.42888   0.86062   0.75000
N          N       0.13938   0.56826   0.75000
N          N       0.56826   0.42888   0.75000
N          N       0.57112   0.13938   0.75000
N          N       0.86062   0.43174   0.75000
H          H       0.38313   0.49498   0.75000
H          H       0.50502   0.88815   0.75000
H          H       0.11185   0.61687   0.75000
H          H       0.61687   0.50502   0.75000
H          H       0.49498   0.11185   0.75000
H          H       0.88815   0.38313   0.75000
H          H       0.35686   0.55500   0.75000
H          H       0.44500   0.80186   0.75000
H          H       0.19814   0.64314   0.75000
H          H       0.64314   0.44500   0.75000
H          H       0.55500   0.19814   0.75000
H          H       0.80186   0.35686   0.75000
H          H       0.30260   0.57586   0.75000
H          H       0.42414   0.72674   0.75000
H          H       0.27326   0.69740   0.75000
H          H       0.69740   0.42414   0.75000
H          H       0.57586   0.27326   0.75000
H          H       0.72674   0.30260   0.75000
H          H       0.41105   0.43287   0.75000
H          H       0.56713   0.97818   0.75000
H          H       0.02182   0.58895   0.75000
H          H       0.58895   0.56713   0.75000
H          H       0.43287   0.02182   0.75000
H          H       0.97818   0.41105   0.75000
H          H       0.52326   0.58935   0.75000
H          H       0.41065   0.93391   0.75000
H          H       0.06609   0.47674   0.75000
H          H       0.47674   0.41065   0.75000
H          H       0.58935   0.06609   0.75000
H          H       0.93391   0.52326   0.75000
