data_crystal

_cell_length_a    30.91000
_cell_length_b    30.91000
_cell_length_c    6.86000
_cell_angle_alpha 90.00000
_cell_angle_beta  90.00000
_cell_angle_gamma 120.00000

_space_group_name_Hall 'P 1'
_space_group_name_H-M_alt 'P 1'

loop_
_symmetry_equiv_pos_as_xyz
 'x,y,z'

loop_
_atom_site_label
_atom_site_type_symbol
_atom_site_fract_x
_atom_site_fract_y
_atom_site_fract_z
C          C       0.41736   0.52546   0.25000
C          C       0.47454   0.89190   0.25000
C          C       0.10810   0.58264   0.25000
C          C       0.58264   0.47454   0.25000
C          C       0.52546   0.10810   0.25000
C          C       0.89190   0.41736   0.25000
N          N       0.39615   0.59040   0.25000
N          N       0.40960   0.80575   0.25000
N          N       0.19425   0.60385   0.25000
N          N       0.60385   0.40960   0.25000
N          N       0.59040   0.19425   0.25000
N          N       0.80575   0.39615   0.25000
C          C       0.31847   0.61584   0.25000
C          C       0.38416   0.70263   0.25000
C          C       0.29737   0.68153   0.25000
C          C       0.68153   0.38416   0.25000
C          C       0.61584   0.29737   0.25000
C          C       0.70263   0.31847   0.25000
C          C       0.36958   0.65178   0.25000
C          C       0.34822   0.71780   0.25000
C          C       0.28220   0.63042   0.25000
C          C       0.63042   0.34822   0.25000
C          C       0.65178   0.28220   0.25000
C          C       0.71780   0.36958   0.25000
C          C       0.40825   0.63708   0.25000
C          C       0.36292   0.77117   0.25000
C          C       0.22883   0.59175   0.25000
C          C       0.59175   0.36292   0.25000
C          C       0.63708   0.22883   0.25000
C          C       0.77117   0.40825   0.25000
C          C       0.45390   0.50628   0.25000
C          C       0.49372   0.94762   0.25000
C          C       0.05238   0.54610   0.25000
C          C       0.54610   0.49372   0.25000
C          C       0.50628   0.05238   0.25000
C          C       0.94762   0.45390   0.25000
C          C       0.43896   0.45414   0.25000
C          C       0.54586   0.98482   0.25000
C          C       0.01518   0.56104   0.25000
C          C       0.56104   0.54586   0.25000
C          C       0.45414   0.01518   0.25000
C          C       0.98482   0.43896   0.25000
C          C       0.50584   0.54075   0.25000
C          C       0.45925   0.96509   0.25000
C          C       0.03491   0.49416   0.25000
C          C       0.49416   0.45925   0.25000
C          C       0.54075   0.03491   0.25000
C          C       0.96509   0.50584   0.25000
H          H       0.44730   0.66590   0.25000
H          H       0.33410   0.78140   0.25000
H          H       0.21860   0.55270   0.25000
H          H       0.55270   0.33410   0.25000
H          H       0.66590   0.21860   0.25000
H          H       0.78140   0.44730   0.25000
N          N       0.38776   0.41414   0.25000
N          N       0.58586   0.97362   0.25000
N          N       0.02638   0.61224   0.25000
N          N       0.61224   0.58586   0.25000
N          N       0.41414   0.02638   0.25000
N          N       0.97362   0.38776   0.25000
N          N       0.43228   0.57546   0.25000
N          N       0.42454   0.85682   0.25000
N          N       0.14318   0.56772   0.25000
N          N       0.56772   0.42454   0.25000
N          N       0.57546   0.14318   0.25000
N          N       0.85682   0.43228   0.25000
O          O       0.37269   0.49606   0.25000
O          O       0.50394   0.87663   0.25000
O          O       0.12337   0.62731   0.25000
O          O       0.62731   0.50394   0.25000
O          O       0.49606   0.12337   0.25000
O          O       0.87663   0.37269   0.25000
H          H       0.46964   0.60327   0.25000
H          H       0.39673   0.86637   0.25000
H          H       0.13363   0.53036   0.25000
H          H       0.53036   0.39673   0.25000
H          H       0.60327   0.13363   0.25000
H          H       0.86637   0.46964   0.25000
H          H       0.30676   0.57644   0.25000
H          H       0.42356   0.73032   0.25000
H          H       0.26968   0.69324   0.25000
H          H       0.69324   0.42356   0.25000
H          H       0.57644   0.26968   0.25000
H          H       0.73032   0.30676   0.25000
H          H       0.52110   0.58052   0.25000
H          H       0.41948   0.94058   0.25000
H          H       0.05942   0.47890   0.25000
H          H       0.47890   0.41948   0.25000
H          H       0.58052   0.05942   0.25000
H          H       0.94058   0.52110   0.25000
H          H       0.37978   0.37707   0.25000
H          H       0.62293   0.00271   0.25000
H          H       0.99729   0.62022   0.25000
H          H       0.62022   0.62293   0.25000
H          H       0.37707   0.99729   0.25000
H          H       0.00271   0.37978   0.25000
H          H       0.35626   0.41787   0.25000
H          H       0.58213   0.93839   0.25000
H          H       0.06161   0.64374   0.25000
H          H       0.64374   0.58213   0.25000
H          H       0.41787   0.06161   0.25000
H          H       0.93839   0.35626   0.25000
C          C       0.41736   0.52546   0.75000
C          C       0.47454   0.89190   0.75000
C          C       0.10810   0.58264   0.75000
C          C       0.58264   0.47454   0.75000
C          C       0.52546   0.10810   0.75000
C          C       0.89190   0.41736   0.75000
N          N       0.39615   0.59040   0.75000
N          N       0.40960   0.80575   0.75000
N          N       0.19425   0.60385   0.75000
N          N       0.60385   0.40960   0.75000
N          N       0.59040   0.19425   0.75000
N          N       0.80575   0.39615   0.75000
C          C       0.31847   0.61584   0.75000
C          C       0.38416   0.70263   0.75000
C          C       0.29737   0.68153   0.75000
C          C       0.68153   0.38416   0.75000
C          C       0.61584   0.29737   0.75000
C          C       0.70263   0.31847   0.75000
C          C       0.36958   0.65178   0.75000
C          C       0.34822   0.71780   0.75000
C          C       0.28220   0.63042   0.75000
C          C       0.63042   0.34822   0.75000
C          C       0.65178   0.28220   0.75000
C          C       0.71780   0.36958   0.75000
C          C       0.40825   0.63708   0.75000
C          C       0.36292   0.77117   0.75000
C          C       0.22883   0.59175   0.75000
C          C       0.59175   0.36292   0.75000
C          C       0.63708   0.22883   0.75000
C          C       0.77117   0.40825   0.75000
C          C       0.45390   0.50628   0.75000
C          C       0.49372   0.94762   0.75000
C          C       0.05238   0.54610   0.75000
C          C       0.54610   0.49372   0.75000
C          C       0.50628   0.05238   0.75000
C          C       0.94762   0.45390   0.75000
C          C       0.43896   0.45414   0.75000
C          C       0.54586   0.98482   0.75000
C          C       0.01518   0.56104   0.75000
C          C       0.56104   0.54586   0.75000
C          C       0.45414   0.01518   0.75000
C          C       0.98482   0.43896   0.75000
C          C       0.50584   0.54075   0.75000
C          C       0.45925   0.96509   0.75000
C          C       0.03491   0.49416   0.75000
C          C       0.49416   0.45925   0.75000
C          C       0.54075   0.03491   0.75000
C          C       0.96509   0.50584   0.75000
H          H       0.44730   0.66590   0.75000
H          H       0.33410   0.78140   0.75000
H          H       0.21860   0.55270   0.75000
H          H       0.55270   0.33410   0.75000
H          H       0.66590   0.21860   0.75000
H          H       0.78140   0.44730   0.75000
N          N       0.38776   0.41414   0.75000
N          N       0.58586   0.97362   0.75000
N          N       0.02638   0.61224   0.75000
N          N       0.61224   0.58586   0.75000
N          N       0.41414   0.02638   0.75000
N          N       0.97362   0.38776   0.75000
N          N       0.43228   0.57546   0.75000
N          N       0.42454   0.85682   0.75000
N          N       0.14318   0.56772   0.75000
N          N       0.56772   0.42454   0.75000
N          N       0.57546   0.14318   0.75000
N          N       0.85682   0.43228   0.75000
O          O       0.37269   0.49606   0.75000
O          O       0.50394   0.87663   0.75000
O          O       0.12337   0.62731   0.75000
O          O       0.62731   0.50394   0.75000
O          O       0.49606   0.12337   0.75000
O          O       0.87663   0.37269   0.75000
H          H       0.46964   0.60327   0.75000
H          H       0.39673   0.86637   0.75000
H          H       0.13363   0.53036   0.75000
H          H       0.53036   0.39673   0.75000
H          H       0.60327   0.13363   0.75000
H          H       0.86637   0.46964   0.75000
H          H       0.30676   0.57644   0.75000
H          H       0.42356   0.73032   0.75000
H          H       0.26968   0.69324   0.75000
H          H       0.69324   0.42356   0.75000
H          H       0.57644   0.26968   0.75000
H          H       0.73032   0.30676   0.75000
H          H       0.52110   0.58052   0.75000
H          H       0.41948   0.94058   0.75000
H          H       0.05942   0.47890   0.75000
H          H       0.47890   0.41948   0.75000
H          H       0.58052   0.05942   0.75000
H          H       0.94058   0.52110   0.75000
H          H       0.37978   0.37707   0.75000
H          H       0.62293   0.00271   0.75000
H          H       0.99729   0.62022   0.75000
H          H       0.62022   0.62293   0.75000
H          H       0.37707   0.99729   0.75000
H          H       0.00271   0.37978   0.75000
H          H       0.35626   0.41787   0.75000
H          H       0.58213   0.93839   0.75000
H          H       0.06161   0.64374   0.75000
H          H       0.64374   0.58213   0.75000
H          H       0.41787   0.06161   0.75000
H          H       0.93839   0.35626   0.75000
