data_crystal

_cell_length_a    31.07000
_cell_length_b    26.31000
_cell_length_c    8.78000
_cell_angle_alpha 90.00000
_cell_angle_beta  90.00000
_cell_angle_gamma 90.00000

_space_group_name_Hall 'P 1'
_space_group_name_H-M_alt 'P 1'

loop_
_symmetry_equiv_pos_as_xyz
 'x,y,z'

loop_
_atom_site_label
_atom_site_type_symbol
_atom_site_fract_x
_atom_site_fract_y
_atom_site_fract_z
C          C       0.00000   0.52677   0.25000
C          C       0.00000   0.47323   0.25000
C          C       0.63369   0.02568   0.25071
C          C       0.36631   0.02568   0.24929
N          N       0.56462   0.00000   0.25000
N          N       0.43538   0.00000   0.25000
C          C       0.52135   0.15806   0.26489
C          C       0.47865   0.84194   0.26489
C          C       0.47865   0.15806   0.23511
C          C       0.52135   0.84194   0.23511
C          C       0.53451   0.10777   0.26446
C          C       0.46549   0.89223   0.26446
C          C       0.46549   0.10777   0.23554
C          C       0.53451   0.89223   0.23554
C          C       0.59106   0.04098   0.25740
C          C       0.40894   0.95902   0.25740
C          C       0.40894   0.04098   0.24260
C          C       0.59106   0.95902   0.24260
C          C       0.57803   0.09230   0.27032
C          C       0.42197   0.90770   0.27032
C          C       0.42197   0.09230   0.22968
C          C       0.57803   0.90770   0.22968
N          N       0.71757   0.23473   0.29289
N          N       0.28243   0.76527   0.29289
N          N       0.28243   0.23473   0.20711
N          N       0.71757   0.76527   0.20711
C          C       0.67980   0.16158   0.39157
C          C       0.32020   0.83842   0.39157
C          C       0.32020   0.16158   0.10843
C          C       0.67980   0.83842   0.10843
C          C       0.68061   0.20242   0.29079
C          C       0.31939   0.79758   0.29079
C          C       0.31939   0.20242   0.20921
C          C       0.68061   0.79758   0.20921
C          C       0.64627   0.20931   0.18918
C          C       0.35373   0.79069   0.18918
C          C       0.35373   0.20931   0.31082
C          C       0.64627   0.79069   0.31082
C          C       0.61349   0.17333   0.18128
C          C       0.38651   0.82667   0.18128
C          C       0.38651   0.17333   0.31872
C          C       0.61349   0.82667   0.31872
C          C       0.61235   0.13212   0.28271
C          C       0.38765   0.86788   0.28271
C          C       0.38765   0.13212   0.21729
C          C       0.61235   0.86788   0.21729
C          C       0.64531   0.12763   0.39131
C          C       0.35469   0.87237   0.39131
C          C       0.35469   0.12763   0.10869
C          C       0.64531   0.87237   0.10869
C          C       0.95943   0.44117   0.24932
C          C       0.04057   0.55883   0.24932
C          C       0.04057   0.44117   0.25068
C          C       0.95943   0.55883   0.25068
C          C       0.95752   0.39560   0.16512
C          C       0.04248   0.60440   0.16512
C          C       0.04248   0.39560   0.33488
C          C       0.95752   0.60440   0.33488
C          C       0.92024   0.36605   0.16097
C          C       0.07976   0.63395   0.16097
C          C       0.07976   0.36605   0.33903
C          C       0.92024   0.63395   0.33903
C          C       0.88388   0.38166   0.24132
C          C       0.11612   0.61834   0.24132
C          C       0.11612   0.38166   0.25868
C          C       0.88388   0.61834   0.25868
C          C       0.88547   0.42560   0.32903
C          C       0.11453   0.57440   0.32903
C          C       0.11453   0.42560   0.17097
C          C       0.88547   0.57440   0.17097
C          C       0.92324   0.45374   0.33570
C          C       0.07676   0.54626   0.33570
C          C       0.07676   0.45374   0.16430
C          C       0.92324   0.54626   0.16430
C          C       0.84383   0.35307   0.23069
C          C       0.15617   0.64693   0.23069
C          C       0.15617   0.35307   0.26931
C          C       0.84383   0.64693   0.26931
C          C       0.83900   0.30775   0.31180
C          C       0.16100   0.69225   0.31180
C          C       0.16100   0.30775   0.18820
C          C       0.83900   0.69225   0.18820
C          C       0.80041   0.28091   0.30288
C          C       0.19959   0.71909   0.30288
C          C       0.19959   0.28091   0.19712
C          C       0.80041   0.71909   0.19712
C          C       0.76682   0.29881   0.21019
C          C       0.23318   0.70119   0.21019
C          C       0.23318   0.29881   0.28981
C          C       0.76682   0.70119   0.28981
C          C       0.77191   0.34419   0.12897
C          C       0.22809   0.65581   0.12897
C          C       0.22809   0.34419   0.37103
C          C       0.77191   0.65581   0.37103
C          C       0.81006   0.37166   0.14130
C          C       0.18994   0.62834   0.14130
C          C       0.18994   0.37166   0.35870
C          C       0.81006   0.62834   0.35870
C          C       0.72673   0.27013   0.19526
C          C       0.27327   0.72987   0.19526
C          C       0.27327   0.27013   0.30473
C          C       0.72673   0.72987   0.30473
C          C       0.36631   0.97432   0.25071
C          C       0.63369   0.97432   0.24929
N          N       0.50000   0.07658   0.25000
N          N       0.50000   0.92342   0.25000
H          H       0.35475   0.24282   0.38356
H          H       0.64394   0.90258   0.02404
H          H       0.35475   0.75718   0.11644
H          H       0.64525   0.24282   0.11644
H          H       0.70628   0.84390   0.02883
H          H       0.58843   0.82279   0.40465
H          H       0.35606   0.09742   0.02404
H          H       0.41157   0.17721   0.40465
H          H       0.41157   0.82279   0.09535
H          H       0.58843   0.17721   0.09535
H          H       0.64525   0.75718   0.38356
H          H       0.70628   0.15610   0.47117
H          H       0.29372   0.15610   0.02883
H          H       0.29372   0.84390   0.47117
H          H       0.45849   0.80877   0.28529
H          H       0.54151   0.80877   0.21471
H          H       0.45849   0.19123   0.21471
H          H       0.14281   0.56208   0.39232
H          H       0.92467   0.48666   0.41071
H          H       0.14281   0.43792   0.10768
H          H       0.13471   0.70655   0.38174
H          H       0.25395   0.64199   0.05618
H          H       0.86529   0.29345   0.38174
H          H       0.74605   0.35801   0.05618
H          H       0.79629   0.75400   0.13211
H          H       0.64394   0.09742   0.47596
H          H       0.08044   0.33095   0.40475
H          H       0.98578   0.61682   0.39812
H          H       0.01422   0.38318   0.39812
H          H       0.91956   0.33095   0.09525
H          H       0.35606   0.90258   0.47596
H          H       0.98578   0.38318   0.10188
H          H       0.01422   0.61682   0.10188
H          H       0.54151   0.19123   0.28529
H          H       0.79629   0.24600   0.36789
H          H       0.86529   0.70655   0.11826
H          H       0.20371   0.75400   0.36789
H          H       0.07533   0.51334   0.41071
H          H       0.13471   0.29345   0.11826
H          H       0.85719   0.43792   0.39232
H          H       0.20371   0.24600   0.13211
H          H       0.85719   0.56208   0.10768
H          H       0.07533   0.48666   0.08929
H          H       0.92467   0.51334   0.08929
H          H       0.91956   0.66905   0.40475
H          H       0.08044   0.66905   0.09525
H          H       0.74605   0.64199   0.44382
H          H       0.18640   0.59236   0.08130
H          H       0.25395   0.35801   0.44382
H          H       0.29540   0.27847   0.39761
H          H       0.70460   0.72153   0.39761
H          H       0.50000   0.03800   0.25000
H          H       0.70460   0.27847   0.10237
H          H       0.33818   0.94966   0.24726
H          H       0.81360   0.59236   0.41870
H          H       0.66182   0.94966   0.25274
H          H       0.81360   0.40764   0.08130
H          H       0.53195   0.00000   0.25000
H          H       0.46805   0.00000   0.25000
H          H       0.50000   0.96200   0.25000
H          H       0.18640   0.40764   0.41870
H          H       0.66182   0.05034   0.24726
H          H       0.33818   0.05034   0.25274
H          H       0.29540   0.72153   0.10237
C          C       0.00000   0.52677   0.75000
C          C       0.00000   0.47323   0.75000
C          C       0.63369   0.02568   0.75071
C          C       0.36631   0.02568   0.74929
N          N       0.56462   0.00000   0.75000
N          N       0.43538   0.00000   0.75000
C          C       0.52135   0.15806   0.76489
C          C       0.47865   0.84194   0.76489
C          C       0.47865   0.15806   0.73511
C          C       0.52135   0.84194   0.73511
C          C       0.53451   0.10777   0.76446
C          C       0.46549   0.89223   0.76446
C          C       0.46549   0.10777   0.73554
C          C       0.53451   0.89223   0.73554
C          C       0.59106   0.04098   0.75740
C          C       0.40894   0.95902   0.75740
C          C       0.40894   0.04098   0.74260
C          C       0.59106   0.95902   0.74260
C          C       0.57803   0.09230   0.77031
C          C       0.42197   0.90770   0.77031
C          C       0.42197   0.09230   0.72968
C          C       0.57803   0.90770   0.72968
N          N       0.71757   0.23473   0.79289
N          N       0.28243   0.76527   0.79289
N          N       0.28243   0.23473   0.70711
N          N       0.71757   0.76527   0.70711
C          C       0.67980   0.16158   0.89157
C          C       0.32020   0.83842   0.89157
C          C       0.32020   0.16158   0.60843
C          C       0.67980   0.83842   0.60843
C          C       0.68061   0.20242   0.79079
C          C       0.31939   0.79758   0.79079
C          C       0.31939   0.20242   0.70921
C          C       0.68061   0.79758   0.70921
C          C       0.64627   0.20931   0.68918
C          C       0.35373   0.79069   0.68918
C          C       0.35373   0.20931   0.81082
C          C       0.64627   0.79069   0.81082
C          C       0.61349   0.17333   0.68128
C          C       0.38651   0.82667   0.68128
C          C       0.38651   0.17333   0.81872
C          C       0.61349   0.82667   0.81872
C          C       0.61235   0.13212   0.78271
C          C       0.38765   0.86788   0.78271
C          C       0.38765   0.13212   0.71729
C          C       0.61235   0.86788   0.71729
C          C       0.64531   0.12763   0.89131
C          C       0.35469   0.87237   0.89131
C          C       0.35469   0.12763   0.60869
C          C       0.64531   0.87237   0.60869
C          C       0.95943   0.44117   0.74932
C          C       0.04057   0.55883   0.74932
C          C       0.04057   0.44117   0.75068
C          C       0.95943   0.55883   0.75068
C          C       0.95752   0.39560   0.66512
C          C       0.04248   0.60440   0.66512
C          C       0.04248   0.39560   0.83488
C          C       0.95752   0.60440   0.83488
C          C       0.92024   0.36605   0.66097
C          C       0.07976   0.63395   0.66097
C          C       0.07976   0.36605   0.83903
C          C       0.92024   0.63395   0.83903
C          C       0.88388   0.38166   0.74132
C          C       0.11612   0.61834   0.74132
C          C       0.11612   0.38166   0.75868
C          C       0.88388   0.61834   0.75868
C          C       0.88547   0.42560   0.82903
C          C       0.11453   0.57440   0.82903
C          C       0.11453   0.42560   0.67097
C          C       0.88547   0.57440   0.67097
C          C       0.92324   0.45374   0.83570
C          C       0.07676   0.54626   0.83570
C          C       0.07676   0.45374   0.66430
C          C       0.92324   0.54626   0.66430
C          C       0.84383   0.35307   0.73069
C          C       0.15617   0.64693   0.73069
C          C       0.15617   0.35307   0.76931
C          C       0.84383   0.64693   0.76931
C          C       0.83900   0.30775   0.81180
C          C       0.16100   0.69225   0.81180
C          C       0.16100   0.30775   0.68820
C          C       0.83900   0.69225   0.68820
C          C       0.80041   0.28091   0.80288
C          C       0.19959   0.71909   0.80288
C          C       0.19959   0.28091   0.69712
C          C       0.80041   0.71909   0.69712
C          C       0.76682   0.29881   0.71019
C          C       0.23318   0.70119   0.71019
C          C       0.23318   0.29881   0.78981
C          C       0.76682   0.70119   0.78981
C          C       0.77191   0.34419   0.62897
C          C       0.22809   0.65581   0.62897
C          C       0.22809   0.34419   0.87103
C          C       0.77191   0.65581   0.87103
C          C       0.81006   0.37166   0.64130
C          C       0.18994   0.62834   0.64130
C          C       0.18994   0.37166   0.85870
C          C       0.81006   0.62834   0.85870
C          C       0.72673   0.27013   0.69527
C          C       0.27327   0.72987   0.69527
C          C       0.27327   0.27013   0.80473
C          C       0.72673   0.72987   0.80473
C          C       0.36631   0.97432   0.75071
C          C       0.63369   0.97432   0.74929
N          N       0.50000   0.07658   0.75000
N          N       0.50000   0.92342   0.75000
H          H       0.92467   0.48666   0.91071
H          H       0.07533   0.51334   0.91071
H          H       0.07533   0.48666   0.58929
H          H       0.92467   0.51334   0.58929
H          H       0.86529   0.29345   0.88174
H          H       0.13471   0.70655   0.88174
H          H       0.13471   0.29345   0.61826
H          H       0.86529   0.70655   0.61826
H          H       0.79629   0.24600   0.86789
H          H       0.20371   0.75400   0.86789
H          H       0.20371   0.24600   0.63211
H          H       0.79629   0.75400   0.63211
H          H       0.74605   0.35801   0.55619
H          H       0.25395   0.64199   0.55619
H          H       0.25395   0.35801   0.94381
H          H       0.74605   0.64199   0.94381
H          H       0.81360   0.40764   0.58130
H          H       0.18640   0.59236   0.58130
H          H       0.18640   0.40764   0.91870
H          H       0.81360   0.59236   0.91870
H          H       0.70460   0.27847   0.60238
H          H       0.29540   0.72153   0.60238
H          H       0.29540   0.27847   0.89762
H          H       0.70460   0.72153   0.89762
H          H       0.66182   0.05034   0.74726
H          H       0.33818   0.94966   0.74726
H          H       0.33818   0.05034   0.75274
H          H       0.66182   0.94966   0.75274
H          H       0.50000   0.03800   0.75000
H          H       0.50000   0.96200   0.75000
H          H       0.53195   0.00000   0.75000
H          H       0.46805   0.00000   0.75000
H          H       0.35475   0.24282   0.88356
H          H       0.64525   0.75718   0.88356
H          H       0.58843   0.17721   0.59535
H          H       0.41157   0.82279   0.59535
H          H       0.41157   0.17721   0.90465
H          H       0.58843   0.82279   0.90465
H          H       0.08044   0.66905   0.59525
H          H       0.91956   0.66905   0.90475
H          H       0.01422   0.38318   0.89812
H          H       0.91956   0.33095   0.59525
H          H       0.98578   0.61682   0.89812
H          H       0.08044   0.33095   0.90475
H          H       0.85719   0.56208   0.60768
H          H       0.14281   0.43792   0.60768
H          H       0.85719   0.43792   0.89232
H          H       0.14281   0.56208   0.89232
H          H       0.70628   0.15610   0.97117
H          H       0.29372   0.84390   0.97117
H          H       0.70628   0.84390   0.52883
H          H       0.29372   0.15610   0.52883
H          H       0.64525   0.24282   0.61644
H          H       0.35475   0.75718   0.61644
H          H       0.01422   0.61682   0.60188
H          H       0.54151   0.80877   0.71471
H          H       0.64394   0.09742   0.97596
H          H       0.64394   0.90258   0.52404
H          H       0.35606   0.09742   0.52404
H          H       0.35606   0.90258   0.97596
H          H       0.45849   0.19123   0.71471
H          H       0.45849   0.80877   0.78529
H          H       0.54151   0.19123   0.78529
H          H       0.98578   0.38318   0.60188
