data_crystal

_cell_length_a    26.00000
_cell_length_b    26.00000
_cell_length_c    8.84000
_cell_angle_alpha 90.00000
_cell_angle_beta  90.00000
_cell_angle_gamma 90.00000

_space_group_name_Hall 'P 1'
_space_group_name_H-M_alt 'P 1'

loop_
_symmetry_equiv_pos_as_xyz
 'x,y,z'

loop_
_atom_site_label
_atom_site_type_symbol
_atom_site_fract_x
_atom_site_fract_y
_atom_site_fract_z
N          N       0.00000   0.69201   0.25000
N          N       0.00000   0.30799   0.25000
C          C       0.65887   0.02582   0.25824
C          C       0.34113   0.02582   0.24176
N          N       0.57631   0.00000   0.25000
N          N       0.42369   0.00000   0.25000
C          C       0.52537   0.16089   0.26884
C          C       0.47463   0.83911   0.26884
C          C       0.47463   0.16089   0.23116
C          C       0.52537   0.83911   0.23116
C          C       0.54100   0.10987   0.27219
C          C       0.45900   0.89013   0.27219
C          C       0.45900   0.10987   0.22781
C          C       0.54100   0.89013   0.22781
C          C       0.60791   0.04135   0.26736
C          C       0.39209   0.95865   0.26736
C          C       0.39209   0.04135   0.23264
C          C       0.60791   0.95865   0.23264
C          C       0.59259   0.09343   0.28874
C          C       0.40741   0.90657   0.28874
C          C       0.40741   0.09343   0.21126
C          C       0.59259   0.90657   0.21126
N          N       0.77837   0.20763   0.32134
N          N       0.22163   0.79237   0.32134
N          N       0.22163   0.20763   0.17866
N          N       0.77837   0.79237   0.17866
C          C       0.71761   0.14870   0.43571
C          C       0.28239   0.85130   0.43571
C          C       0.28239   0.14870   0.06429
C          C       0.71761   0.85130   0.06429
C          C       0.72678   0.18846   0.33364
C          C       0.27322   0.81154   0.33364
C          C       0.27322   0.18846   0.16636
C          C       0.72678   0.81154   0.16636
C          C       0.68686   0.20466   0.23734
C          C       0.31314   0.79534   0.23734
C          C       0.31314   0.20466   0.26266
C          C       0.68686   0.79534   0.26266
C          C       0.64178   0.17564   0.22686
C          C       0.35822   0.82436   0.22686
C          C       0.35822   0.17564   0.27314
C          C       0.64178   0.82436   0.27314
C          C       0.63420   0.13236   0.32016
C          C       0.36580   0.86764   0.32016
C          C       0.36580   0.13236   0.17984
C          C       0.63420   0.86764   0.17984
C          C       0.67108   0.12207   0.43248
C          C       0.32892   0.87793   0.43248
C          C       0.32892   0.12207   0.06752
C          C       0.67108   0.87793   0.06752
C          C       0.79692   0.23136   0.20486
C          C       0.20308   0.76864   0.20486
C          C       0.20308   0.23136   0.29514
C          C       0.79692   0.76864   0.29514
C          C       0.34113   0.97418   0.25824
C          C       0.65887   0.97418   0.24176
C          C       0.85124   0.75447   0.29914
C          C       0.14876   0.24553   0.29914
C          C       0.14876   0.75447   0.20086
C          C       0.85124   0.24553   0.20086
C          C       0.86659   0.71528   0.39701
C          C       0.13341   0.28472   0.39701
C          C       0.13341   0.71528   0.10299
C          C       0.86659   0.28472   0.10299
C          C       0.91697   0.69825   0.39498
C          C       0.08303   0.30175   0.39498
C          C       0.08303   0.69825   0.10502
C          C       0.91697   0.30175   0.10502
C          C       0.95346   0.71950   0.28408
C          C       0.04654   0.28050   0.28408
C          C       0.04654   0.71950   0.21592
C          C       0.95346   0.28050   0.21592
C          C       0.93816   0.76182   0.19765
C          C       0.06184   0.23818   0.19765
C          C       0.06184   0.76182   0.30235
C          C       0.93816   0.23818   0.30235
C          C       0.88742   0.77913   0.20517
C          C       0.11258   0.22087   0.20517
C          C       0.11258   0.77913   0.29483
C          C       0.88742   0.22087   0.29483
C          C       0.04438   0.39139   0.20905
C          C       0.04438   0.60861   0.29095
C          C       0.04412   0.44470   0.20652
C          C       0.04412   0.55530   0.29348
C          C       0.00000   0.52821   0.25000
C          C       0.00000   0.47179   0.25000
C          C       0.00000   0.63629   0.25000
C          C       0.00000   0.36371   0.25000
N          N       0.50000   0.07852   0.25000
N          N       0.50000   0.92148   0.25000
H          H       0.54914   0.19447   0.29193
H          H       0.45086   0.80553   0.29193
H          H       0.45086   0.19447   0.20807
H          H       0.54914   0.80553   0.20807
H          H       0.92964   0.33086   0.02465
H          H       0.25310   0.86163   0.51837
H          H       0.74690   0.13837   0.51837
H          H       0.83898   0.30185   0.02524
H          H       0.69109   0.23973   0.17114
H          H       0.07036   0.33086   0.47535
H          H       0.61220   0.18658   0.14578
H          H       0.30891   0.23973   0.32886
H          H       0.30891   0.76027   0.17114
H          H       0.66321   0.09296   0.51796
H          H       0.38780   0.81342   0.14578
H          H       0.69109   0.76027   0.32886
H          H       0.92964   0.66914   0.47535
H          H       0.61220   0.81342   0.35422
H          H       0.38780   0.18658   0.35422
H          H       0.83898   0.69815   0.47476
H          H       0.33679   0.90704   0.51796
H          H       0.22799   0.24077   0.39024
H          H       0.77201   0.24077   0.10976
H          H       0.22799   0.75923   0.10976
H          H       0.77201   0.75923   0.39024
H          H       0.30743   0.94937   0.26341
H          H       0.69257   0.05063   0.26341
H          H       0.69257   0.94937   0.23659
H          H       0.30743   0.05063   0.23659
H          H       0.16102   0.69815   0.02524
H          H       0.16102   0.30185   0.47476
H          H       0.07036   0.66914   0.02465
H          H       0.87564   0.18790   0.36242
H          H       0.07833   0.53444   0.32939
H          H       0.07833   0.46556   0.17061
H          H       0.96575   0.78123   0.12464
H          H       0.03425   0.78123   0.37536
H          H       0.03425   0.21877   0.12464
H          H       0.07933   0.62931   0.32100
H          H       0.87564   0.81210   0.13758
H          H       0.96575   0.21877   0.37536
H          H       0.12437   0.18790   0.13758
H          H       0.12437   0.81210   0.36242
H          H       0.07933   0.37069   0.17900
H          H       0.50000   0.96052   0.25000
H          H       0.50000   0.03948   0.25000
H          H       0.53727   0.00000   0.25000
H          H       0.46273   0.00000   0.25000
C          C       0.95562   0.60861   0.20905
C          C       0.95562   0.39139   0.29095
C          C       0.95588   0.55530   0.20652
C          C       0.95588   0.44470   0.29348
H          H       0.92167   0.53444   0.17061
H          H       0.92067   0.37069   0.32100
H          H       0.92167   0.46556   0.32939
H          H       0.92067   0.62931   0.17900
H          H       0.74690   0.86163   0.98163
H          H       0.25310   0.13837   0.98163
H          H       0.33679   0.09296   0.98204
H          H       0.66321   0.90704   0.98204
N          N       0.00000   0.69201   0.75000
N          N       0.00000   0.30799   0.75000
C          C       0.65887   0.02582   0.75824
C          C       0.34113   0.02582   0.74176
N          N       0.57631   0.00000   0.75000
N          N       0.42369   0.00000   0.75000
C          C       0.52537   0.16089   0.76884
C          C       0.47463   0.83911   0.76884
C          C       0.47463   0.16089   0.73116
C          C       0.52537   0.83911   0.73116
C          C       0.54100   0.10987   0.77219
C          C       0.45900   0.89013   0.77219
C          C       0.45900   0.10987   0.72781
C          C       0.54100   0.89013   0.72781
C          C       0.60791   0.04135   0.76736
C          C       0.39209   0.95865   0.76736
C          C       0.39209   0.04135   0.73264
C          C       0.60791   0.95865   0.73264
C          C       0.59259   0.09343   0.78874
C          C       0.40741   0.90657   0.78874
C          C       0.40741   0.09343   0.71126
C          C       0.59259   0.90657   0.71126
N          N       0.77837   0.20763   0.82134
N          N       0.22163   0.79237   0.82134
N          N       0.22163   0.20763   0.67866
N          N       0.77837   0.79237   0.67866
C          C       0.71761   0.14870   0.93571
C          C       0.28239   0.85130   0.93571
C          C       0.28239   0.14870   0.56429
C          C       0.71761   0.85130   0.56429
C          C       0.72678   0.18846   0.83364
C          C       0.27322   0.81154   0.83364
C          C       0.27322   0.18846   0.66636
C          C       0.72678   0.81154   0.66636
C          C       0.68686   0.20466   0.73734
C          C       0.31314   0.79534   0.73734
C          C       0.31314   0.20466   0.76266
C          C       0.68686   0.79534   0.76266
C          C       0.64178   0.17564   0.72686
C          C       0.35822   0.82436   0.72686
C          C       0.35822   0.17564   0.77314
C          C       0.64178   0.82436   0.77314
C          C       0.63420   0.13236   0.82016
C          C       0.36580   0.86764   0.82016
C          C       0.36580   0.13236   0.67984
C          C       0.63420   0.86764   0.67984
C          C       0.67108   0.12207   0.93248
C          C       0.32892   0.87793   0.93248
C          C       0.32892   0.12207   0.56752
C          C       0.67108   0.87793   0.56752
C          C       0.79692   0.23136   0.70486
C          C       0.20308   0.76864   0.70486
C          C       0.20308   0.23136   0.79514
C          C       0.79692   0.76864   0.79514
C          C       0.34113   0.97418   0.75824
C          C       0.65887   0.97418   0.74176
C          C       0.85124   0.75447   0.79914
C          C       0.14876   0.24553   0.79914
C          C       0.14876   0.75447   0.70086
C          C       0.85124   0.24553   0.70086
C          C       0.86659   0.71528   0.89701
C          C       0.13341   0.28472   0.89701
C          C       0.13341   0.71528   0.60299
C          C       0.86659   0.28472   0.60299
C          C       0.91697   0.69825   0.89499
C          C       0.08303   0.30175   0.89499
C          C       0.08303   0.69825   0.60501
C          C       0.91697   0.30175   0.60501
C          C       0.95346   0.71950   0.78409
C          C       0.04654   0.28050   0.78409
C          C       0.04654   0.71950   0.71591
C          C       0.95346   0.28050   0.71591
C          C       0.93816   0.76182   0.69765
C          C       0.06184   0.23818   0.69765
C          C       0.06184   0.76182   0.80235
C          C       0.93816   0.23818   0.80235
C          C       0.88742   0.77913   0.70517
C          C       0.11258   0.22087   0.70517
C          C       0.11258   0.77913   0.79483
C          C       0.88742   0.22087   0.79483
C          C       0.04438   0.39139   0.70904
C          C       0.04438   0.60861   0.79096
C          C       0.04412   0.44470   0.70652
C          C       0.04412   0.55530   0.79348
C          C       0.00000   0.52821   0.75000
C          C       0.00000   0.47179   0.75000
C          C       0.00000   0.63629   0.75000
C          C       0.00000   0.36371   0.75000
N          N       0.50000   0.07852   0.75000
N          N       0.50000   0.92148   0.75000
H          H       0.25310   0.13837   0.48163
H          H       0.74690   0.86163   0.48163
H          H       0.69257   0.94937   0.73659
H          H       0.30743   0.94937   0.76341
H          H       0.30891   0.76027   0.67114
H          H       0.30891   0.23973   0.82886
H          H       0.77201   0.75923   0.89024
H          H       0.30743   0.05063   0.73659
H          H       0.69257   0.05063   0.76341
H          H       0.61220   0.18658   0.64578
H          H       0.61220   0.81342   0.85422
H          H       0.77201   0.24077   0.60976
H          H       0.38780   0.18658   0.85422
H          H       0.22799   0.75923   0.60976
H          H       0.38780   0.81342   0.64578
H          H       0.92963   0.66915   0.97537
H          H       0.69109   0.23973   0.67114
H          H       0.16102   0.30185   0.97476
H          H       0.16102   0.69815   0.52524
H          H       0.69109   0.76027   0.82886
H          H       0.07036   0.33085   0.97537
H          H       0.83898   0.30185   0.52524
H          H       0.33679   0.09296   0.48204
H          H       0.22799   0.24077   0.89024
H          H       0.66321   0.90704   0.48204
H          H       0.07036   0.66915   0.52463
H          H       0.83898   0.69815   0.97476
H          H       0.92963   0.33085   0.52463
H          H       0.96575   0.78123   0.62464
H          H       0.03425   0.21877   0.62464
H          H       0.03425   0.78123   0.87536
H          H       0.96575   0.21877   0.87536
H          H       0.87564   0.81210   0.63758
H          H       0.12437   0.18790   0.63758
H          H       0.12437   0.81210   0.86242
H          H       0.87564   0.18790   0.86242
H          H       0.07933   0.37069   0.67898
H          H       0.07933   0.62931   0.82102
H          H       0.07833   0.46556   0.67062
H          H       0.07833   0.53444   0.82938
H          H       0.50000   0.03948   0.75000
H          H       0.50000   0.96052   0.75000
H          H       0.53727   0.00000   0.75000
H          H       0.46273   0.00000   0.75000
H          H       0.45086   0.80553   0.79193
H          H       0.54914   0.80553   0.70807
H          H       0.45086   0.19447   0.70807
H          H       0.54914   0.19447   0.79193
C          C       0.95562   0.60861   0.70904
C          C       0.95562   0.39139   0.79096
C          C       0.95588   0.55530   0.70652
C          C       0.95588   0.44470   0.79348
H          H       0.92067   0.62931   0.67898
H          H       0.92067   0.37069   0.82102
H          H       0.92167   0.53444   0.67062
H          H       0.92167   0.46556   0.82938
H          H       0.74690   0.13837   0.01837
H          H       0.25310   0.86163   0.01837
H          H       0.66321   0.09296   0.01796
H          H       0.33679   0.90704   0.01796
