data_crystal
 
_cell_length_a    36.85660
_cell_length_b    36.85660
_cell_length_c    3.82790
_cell_angle_alpha 90.00000
_cell_angle_beta  90.00000
_cell_angle_gamma 120.00000
 
_symmetry_space_group_name_Hall 'P 1'
_symmetry_space_group_name_H-M  'P 1'
 
loop_
_symmetry_equiv_pos_as_xyz
 'x,y,z' 
 
loop_
_atom_site_label
_atom_site_type_symbol
_atom_site_fract_x
_atom_site_fract_y
_atom_site_fract_z
_atom_site_charge
C          C       0.28959   0.64175   0.53805   0.0000000000
C          C       0.31471   0.62338   0.53794   0.0000000000
C          C       0.24388   0.61574   0.54060   0.0000000000
C          C       0.37015   0.58897   0.38366   0.0000000000
C          C       0.39438   0.57007   0.38782   0.0000000000
C          C       0.43378   0.59007   0.55121   0.0000000000
C          C       0.44844   0.62966   0.70242   0.0000000000
C          C       0.42385   0.64813   0.69940   0.0000000000
N          N       0.45989   0.57300   0.55465   0.0000000000
C          C       0.44487   0.53331   0.56073   0.0000000000
C          C       0.47234   0.51574   0.55513   0.0000000000
C          C       0.45648   0.47206   0.55434   0.0000000000
C          C       0.48449   0.45717   0.55369   0.0000000000
S          S       0.40216   0.43830   0.55283   0.0000000000
C          C       0.60417   0.61346   0.55860   0.0000000000
H          H       0.30007   0.58935   0.53831   0.0000000000
H          H       0.33984   0.57325   0.25002   0.0000000000
H          H       0.38311   0.53994   0.25644   0.0000000000
H          H       0.47897   0.64533   0.83208   0.0000000000
H          H       0.43538   0.67852   0.82678   0.0000000000
H          H       0.41059   0.51095   0.57668   0.0000000000
H          H       0.47350   0.42370   0.55407   0.0000000000
H          H       0.59046   0.61945   0.32414   0.0000000000
H          H       0.63752   0.63611   0.56032   0.0000000000
H          H       0.59025   0.61875   0.79519   0.0000000000
C          C       0.35825   0.64784   0.53805   0.0000000000
C          C       0.37662   0.69133   0.53794   0.0000000000
C          C       0.38426   0.62814   0.54060   0.0000000000
C          C       0.41103   0.78118   0.38366   0.0000000000
C          C       0.42993   0.82431   0.38782   0.0000000000
C          C       0.40993   0.84371   0.55121   0.0000000000
C          C       0.37034   0.81878   0.70242   0.0000000000
C          C       0.35187   0.77572   0.69940   0.0000000000
N          N       0.42700   0.88689   0.55465   0.0000000000
C          C       0.46669   0.91156   0.56073   0.0000000000
C          C       0.48426   0.95660   0.55513   0.0000000000
C          C       0.52794   0.98442   0.55434   0.0000000000
C          C       0.54283   0.02732   0.55369   0.0000000000
S          S       0.56170   0.96386   0.55283   0.0000000000
C          C       0.38654   0.99071   0.55860   0.0000000000
H          H       0.41065   0.71072   0.53831   0.0000000000
H          H       0.42675   0.76659   0.25002   0.0000000000
H          H       0.46006   0.84317   0.25644   0.0000000000
H          H       0.35467   0.83364   0.83208   0.0000000000
H          H       0.32148   0.75686   0.82678   0.0000000000
H          H       0.48905   0.89964   0.57668   0.0000000000
H          H       0.57630   0.04980   0.55407   0.0000000000
H          H       0.38055   0.97101   0.32414   0.0000000000
H          H       0.36389   0.00141   0.56032   0.0000000000
H          H       0.38125   0.97150   0.79519   0.0000000000
C          C       0.35216   0.71041   0.53805   0.0000000000
C          C       0.30867   0.68529   0.53794   0.0000000000
C          C       0.37186   0.75612   0.54060   0.0000000000
C          C       0.21882   0.62985   0.38366   0.0000000000
C          C       0.17569   0.60562   0.38782   0.0000000000
C          C       0.15629   0.56622   0.55121   0.0000000000
C          C       0.18122   0.55156   0.70242   0.0000000000
C          C       0.22428   0.57615   0.69940   0.0000000000
N          N       0.11311   0.54011   0.55465   0.0000000000
C          C       0.08844   0.55513   0.56073   0.0000000000
C          C       0.04340   0.52766   0.55513   0.0000000000
C          C       0.01558   0.54352   0.55434   0.0000000000
C          C       0.97268   0.51551   0.55369   0.0000000000
S          S       0.03614   0.59784   0.55283   0.0000000000
C          C       0.00929   0.39583   0.55860   0.0000000000
H          H       0.28928   0.69993   0.53831   0.0000000000
H          H       0.23341   0.66016   0.25002   0.0000000000
H          H       0.15683   0.61689   0.25644   0.0000000000
H          H       0.16636   0.52103   0.83208   0.0000000000
H          H       0.24314   0.56462   0.82678   0.0000000000
H          H       0.10036   0.58941   0.57668   0.0000000000
H          H       0.95020   0.52650   0.55407   0.0000000000
H          H       0.02899   0.40954   0.32414   0.0000000000
H          H       0.99859   0.36248   0.56032   0.0000000000
H          H       0.02850   0.40975   0.79519   0.0000000000
C          C       0.71041   0.35825   0.53805   0.0000000000
C          C       0.68529   0.37662   0.53794   0.0000000000
C          C       0.75612   0.38426   0.54060   0.0000000000
C          C       0.62985   0.41103   0.38366   0.0000000000
C          C       0.60562   0.42993   0.38782   0.0000000000
C          C       0.56622   0.40993   0.55121   0.0000000000
C          C       0.55156   0.37034   0.70242   0.0000000000
C          C       0.57615   0.35187   0.69940   0.0000000000
N          N       0.54011   0.42700   0.55465   0.0000000000
C          C       0.55513   0.46669   0.56073   0.0000000000
C          C       0.52766   0.48426   0.55513   0.0000000000
C          C       0.54352   0.52794   0.55434   0.0000000000
C          C       0.51551   0.54283   0.55369   0.0000000000
S          S       0.59784   0.56170   0.55283   0.0000000000
C          C       0.39583   0.38654   0.55860   0.0000000000
H          H       0.69993   0.41065   0.53831   0.0000000000
H          H       0.66016   0.42675   0.25002   0.0000000000
H          H       0.61689   0.46006   0.25644   0.0000000000
H          H       0.52103   0.35467   0.83208   0.0000000000
H          H       0.56462   0.32148   0.82678   0.0000000000
H          H       0.58941   0.48905   0.57668   0.0000000000
H          H       0.52650   0.57630   0.55407   0.0000000000
H          H       0.40954   0.38055   0.32414   0.0000000000
H          H       0.36248   0.36389   0.56032   0.0000000000
H          H       0.40975   0.38125   0.79519   0.0000000000
C          C       0.64175   0.35216   0.53805   0.0000000000
C          C       0.62338   0.30867   0.53794   0.0000000000
C          C       0.61574   0.37186   0.54060   0.0000000000
C          C       0.58897   0.21882   0.38366   0.0000000000
C          C       0.57007   0.17569   0.38782   0.0000000000
C          C       0.59007   0.15629   0.55121   0.0000000000
C          C       0.62966   0.18122   0.70242   0.0000000000
C          C       0.64813   0.22428   0.69940   0.0000000000
N          N       0.57300   0.11311   0.55465   0.0000000000
C          C       0.53331   0.08844   0.56073   0.0000000000
C          C       0.51574   0.04340   0.55513   0.0000000000
C          C       0.47206   0.01558   0.55434   0.0000000000
C          C       0.45717   0.97268   0.55369   0.0000000000
S          S       0.43830   0.03614   0.55283   0.0000000000
C          C       0.61346   0.00929   0.55860   0.0000000000
H          H       0.58935   0.28928   0.53831   0.0000000000
H          H       0.57325   0.23341   0.25002   0.0000000000
H          H       0.53994   0.15683   0.25644   0.0000000000
H          H       0.64533   0.16636   0.83208   0.0000000000
H          H       0.67852   0.24314   0.82678   0.0000000000
H          H       0.51095   0.10036   0.57668   0.0000000000
H          H       0.42370   0.95020   0.55407   0.0000000000
H          H       0.61945   0.02899   0.32414   0.0000000000
H          H       0.63611   0.99859   0.56032   0.0000000000
H          H       0.61875   0.02850   0.79519   0.0000000000
C          C       0.64784   0.28959   0.53805   0.0000000000
C          C       0.69133   0.31471   0.53794   0.0000000000
C          C       0.62814   0.24388   0.54060   0.0000000000
C          C       0.78118   0.37015   0.38366   0.0000000000
C          C       0.82431   0.39438   0.38782   0.0000000000
C          C       0.84371   0.43378   0.55121   0.0000000000
C          C       0.81878   0.44844   0.70242   0.0000000000
C          C       0.77572   0.42385   0.69940   0.0000000000
N          N       0.88689   0.45989   0.55465   0.0000000000
C          C       0.91156   0.44487   0.56073   0.0000000000
C          C       0.95660   0.47234   0.55513   0.0000000000
C          C       0.98442   0.45648   0.55434   0.0000000000
C          C       0.02732   0.48449   0.55369   0.0000000000
S          S       0.96386   0.40216   0.55283   0.0000000000
C          C       0.99071   0.60417   0.55860   0.0000000000
H          H       0.71072   0.30007   0.53831   0.0000000000
H          H       0.76659   0.33984   0.25002   0.0000000000
H          H       0.84317   0.38311   0.25644   0.0000000000
H          H       0.83364   0.47897   0.83208   0.0000000000
H          H       0.75686   0.43538   0.82678   0.0000000000
H          H       0.89964   0.41059   0.57668   0.0000000000
H          H       0.04980   0.47350   0.55407   0.0000000000
H          H       0.97101   0.59046   0.32414   0.0000000000
H          H       0.00141   0.63752   0.56032   0.0000000000
H          H       0.97150   0.59025   0.79519   0.0000000000
