data_crystal

_cell_length_a    36.44000
_cell_length_b    35.81000
_cell_length_c    8.76000
_cell_angle_alpha 88.78000
_cell_angle_beta  93.99000
_cell_angle_gamma 117.85000

_space_group_name_Hall 'P 1'
_space_group_name_H-M_alt 'P 1'

loop_
_symmetry_equiv_pos_as_xyz
 'x,y,z'

loop_
_atom_site_label
_atom_site_type_symbol
_atom_site_fract_x
_atom_site_fract_y
_atom_site_fract_z
O          O       0.06062   0.47659   0.41177
O          O       0.95507   0.53832   0.02386
C          C       0.24933   0.62334   0.02976
C          C       0.38045   0.76165   0.05230
C          C       0.63256   0.25090   0.44742
C          C       0.76452   0.38861   0.46446
C          C       0.41352   0.78297   0.46394
C          C       0.43487   0.82591   0.46517
C          C       0.42305   0.84860   0.05320
C          C       0.39063   0.82749   0.14268
C          C       0.37008   0.78463   0.14416
C          C       0.22561   0.63167   0.12186
C          C       0.18319   0.60847   0.10872
C          C       0.16358   0.57527   0.00611
C          C       0.18717   0.56542   0.42019
C          C       0.22949   0.58941   0.43019
C          C       0.78686   0.37956   0.36806
C          C       0.82927   0.40245   0.37451
C          C       0.85025   0.43618   0.47426
C          C       0.82798   0.44676   0.06442
C          C       0.78569   0.42306   0.06113
C          C       0.59934   0.22934   0.03494
C          C       0.57772   0.18641   0.03122
C          C       0.58944   0.16391   0.44170
C          C       0.62192   0.18525   0.35266
C          C       0.64267   0.22813   0.35334
N          N       0.12014   0.55017   0.48800
N          N       0.44251   0.89272   0.05523
N          N       0.56984   0.11977   0.43791
N          N       0.89377   0.46099   0.48585
C          C       0.09340   0.55911   0.03345
C          C       0.47167   0.91779   0.47591
C          C       0.91968   0.45213   0.43211
C          C       0.54070   0.09459   0.01711
C          C       0.48863   0.96297   0.48940
C          C       0.04912   0.53068   0.00586
C          C       0.52360   0.04942   0.00260
C          C       0.96405   0.48021   0.45642
C          C       0.02247   0.54531   0.03732
C          C       0.03321   0.49041   0.44594
C          C       0.52323   0.98799   0.41354
C          C       0.47089   0.98116   0.07254
C          C       0.99055   0.46555   0.42330
C          C       0.98027   0.52071   0.01241
C          C       0.48897   0.02439   0.07828
C          C       0.54130   0.03124   0.41927
H          H       0.42233   0.76646   0.39032
H          H       0.45980   0.84064   0.39463
H          H       0.38145   0.84441   0.21285
H          H       0.34606   0.76952   0.21707
H          H       0.23980   0.65531   0.20763
H          H       0.16629   0.61589   0.18277
H          H       0.17257   0.53970   0.34174
H          H       0.24659   0.58192   0.35697
H          H       0.77157   0.35558   0.28403
H          H       0.84502   0.39434   0.29753
H          H       0.84364   0.47287   0.14093
H          H       0.76969   0.43118   0.13739
H          H       0.59066   0.24562   0.11012
H          H       0.55271   0.17154   0.10135
H          H       0.63100   0.16851   0.28119
H          H       0.66668   0.24343   0.28038
H          H       0.10298   0.58851   0.08714
H          H       0.48440   0.90629   0.39792
H          H       0.90945   0.42298   0.37559
H          H       0.52815   0.10600   0.09614
H          H       0.03462   0.57674   0.07654
H          H       0.53590   0.97318   0.34989
O          O       0.43559   0.95531   0.14581
H          H       0.97740   0.43446   0.37988
H          H       0.47630   0.03920   0.14195
O          O       0.57659   0.05709   0.34595
C          C       0.29455   0.64906   0.03773
C          C       0.31806   0.62936   0.02959
C          C       0.36045   0.65175   0.03133
C          C       0.37968   0.69465   0.04013
C          C       0.35740   0.71572   0.04707
C          C       0.31422   0.69260   0.04770
C          C       0.38480   0.63033   0.02405
C          C       0.37478   0.59438   0.10452
C          C       0.39785   0.57436   0.09838
C          C       0.43163   0.59010   0.01144
C          C       0.44143   0.62580   0.43086
C          C       0.41833   0.64575   0.43672
O          O       0.29109   0.71172   0.07518
C          C       0.28400   0.73349   0.45488
C          C       0.26248   0.75606   0.01206
C          C       0.26513   0.79009   0.40521
C          C       0.21808   0.72526   0.03895
C          C       0.25915   0.82280   0.48261
N          N       0.45666   0.57108   0.00004
C          C       0.45378   0.53905   0.07012
C          C       0.48207   0.52309   0.04471
C          C       0.47655   0.48642   0.11155
C          C       0.50407   0.47206   0.08629
C          C       0.53632   0.49334   0.49470
C          C       0.54191   0.53009   0.42836
C          C       0.51440   0.54442   0.45354
O          O       0.44357   0.46572   0.20178
C          C       0.43372   0.42555   0.25156
C          C       0.71933   0.36317   0.46307
C          C       0.69629   0.38320   0.47603
C          C       0.65396   0.36116   0.47812
C          C       0.63429   0.31827   0.46737
C          C       0.65609   0.29682   0.45587
C          C       0.69925   0.31959   0.45312
C          C       0.63015   0.38299   0.49060
C          C       0.64020   0.41932   0.41260
C          C       0.61772   0.43979   0.42375
C          C       0.58453   0.42421   0.01359
C          C       0.57458   0.38804   0.09123
C          C       0.59710   0.36761   0.08036
O          O       0.72196   0.30011   0.42397
C          C       0.72868   0.27768   0.04277
C          C       0.75023   0.25531   0.48423
C          C       0.74773   0.22119   0.09026
C          C       0.79460   0.28626   0.45744
C          C       0.75405   0.18879   0.01218
N          N       0.56005   0.44367   0.02968
C          C       0.56437   0.47720   0.46752
O          O       0.57486   0.55081   0.33794
C          C       0.58473   0.59099   0.28836
H          H       0.30319   0.59614   0.02238
H          H       0.41260   0.71182   0.04626
H          H       0.34951   0.58211   0.17469
H          H       0.38896   0.54694   0.16253
H          H       0.46702   0.63806   0.36217
H          H       0.42634   0.67290   0.37094
H          H       0.26538   0.71207   0.36144
H          H       0.31326   0.75642   0.41448
H          H       0.27889   0.77096   0.12001
H          H       0.24191   0.77648   0.30998
H          H       0.29561   0.80613   0.36026
H          H       0.21697   0.70351   0.12643
H          H       0.20146   0.70762   0.43493
H          H       0.20201   0.74114   0.07812
H          H       0.22820   0.80946   0.02227
H          H       0.26302   0.84723   0.40246
H          H       0.28209   0.83704   0.07853
H          H       0.43081   0.52358   0.14791
H          H       0.50056   0.44415   0.13710
H          H       0.51795   0.57237   0.40291
H          H       0.45881   0.42650   0.32706
H          H       0.42675   0.40439   0.15491
H          H       0.40631   0.41360   0.31544
H          H       0.71147   0.41642   0.48368
H          H       0.60139   0.30146   0.46307
H          H       0.66500   0.43151   0.34025
H          H       0.62653   0.46734   0.36050
H          H       0.54937   0.37578   0.16168
H          H       0.58905   0.34013   0.14417
H          H       0.69931   0.25460   0.08199
H          H       0.74718   0.29860   0.13742
H          H       0.73380   0.24057   0.37608
H          H       0.71720   0.20490   0.13481
H          H       0.77083   0.23474   0.18585
H          H       0.79564   0.30818   0.37075
H          H       0.81072   0.27055   0.41726
H          H       0.81123   0.30373   0.06176
H          H       0.73130   0.17470   0.41562
H          H       0.75013   0.16421   0.09165
H          H       0.78511   0.20238   0.47337
H          H       0.58834   0.49381   0.39449
H          H       0.55963   0.59007   0.21296
H          H       0.61213   0.60294   0.22441
H          H       0.59173   0.61213   0.38509
C          C       0.41404   0.97286   0.21146
C          C       0.04520   0.43800   0.33557
C          C       0.95191   0.54862   0.17200
C          C       0.59818   0.03956   0.28049
H          H       0.38663   0.94785   0.25833
H          H       0.40400   0.98859   0.12599
H          H       0.43305   0.99441   0.30421
H          H       0.02883   0.43776   0.22730
H          H       0.02512   0.41250   0.40637
H          H       0.07115   0.43330   0.31229
H          H       0.93674   0.52022   0.23680
H          H       0.93274   0.56372   0.16836
H          H       0.98220   0.57016   0.22711
H          H       0.62559   0.06457   0.23366
H          H       0.57920   0.01798   0.18776
H          H       0.60821   0.02385   0.36609
O          O       0.06062   0.47659   0.91177
O          O       0.95507   0.53832   0.52385
C          C       0.24933   0.62334   0.52975
C          C       0.38045   0.76165   0.55230
C          C       0.63256   0.25090   0.94742
C          C       0.76452   0.38861   0.96446
C          C       0.41352   0.78297   0.96394
C          C       0.43487   0.82591   0.96517
C          C       0.42305   0.84860   0.55320
C          C       0.39063   0.82749   0.64268
C          C       0.37008   0.78463   0.64416
C          C       0.22561   0.63167   0.62187
C          C       0.18319   0.60847   0.60872
C          C       0.16358   0.57527   0.50611
C          C       0.18717   0.56542   0.92019
C          C       0.22949   0.58941   0.93019
C          C       0.78686   0.37956   0.86806
C          C       0.82927   0.40245   0.87451
C          C       0.85025   0.43618   0.97426
C          C       0.82798   0.44676   0.56442
C          C       0.78569   0.42306   0.56113
C          C       0.59934   0.22934   0.53494
C          C       0.57772   0.18641   0.53122
C          C       0.58944   0.16391   0.94170
C          C       0.62192   0.18525   0.85266
C          C       0.64267   0.22813   0.85334
N          N       0.12014   0.55017   0.98801
N          N       0.44251   0.89272   0.55523
N          N       0.56984   0.11977   0.93791
N          N       0.89377   0.46099   0.98585
C          C       0.09340   0.55911   0.53344
C          C       0.47167   0.91779   0.97591
C          C       0.91968   0.45213   0.93211
C          C       0.54070   0.09459   0.51711
C          C       0.48863   0.96297   0.98940
C          C       0.04912   0.53068   0.50586
C          C       0.52360   0.04942   0.50259
C          C       0.96405   0.48021   0.95642
C          C       0.02247   0.54531   0.53732
C          C       0.03321   0.49041   0.94594
C          C       0.52323   0.98799   0.91354
C          C       0.47089   0.98116   0.57254
C          C       0.99055   0.46555   0.92331
C          C       0.98027   0.52071   0.51241
C          C       0.48897   0.02439   0.57828
C          C       0.54130   0.03124   0.91927
H          H       0.42233   0.76646   0.89032
H          H       0.45980   0.84064   0.89463
H          H       0.38145   0.84441   0.71284
H          H       0.34606   0.76952   0.71708
H          H       0.23980   0.65531   0.70763
H          H       0.16629   0.61589   0.68277
H          H       0.17257   0.53970   0.84174
H          H       0.24659   0.58192   0.85697
H          H       0.77157   0.35558   0.78403
H          H       0.84502   0.39434   0.79753
H          H       0.84364   0.47287   0.64093
H          H       0.76969   0.43118   0.63738
H          H       0.59066   0.24562   0.61012
H          H       0.55271   0.17154   0.60134
H          H       0.63100   0.16851   0.78118
H          H       0.66668   0.24343   0.78038
H          H       0.10298   0.58851   0.58714
H          H       0.48440   0.90629   0.89792
H          H       0.90945   0.42298   0.87559
H          H       0.52815   0.10600   0.59614
H          H       0.03462   0.57674   0.57654
H          H       0.53590   0.97318   0.84989
O          O       0.43559   0.95531   0.64581
H          H       0.97740   0.43446   0.87988
H          H       0.47630   0.03920   0.64195
O          O       0.57659   0.05709   0.84595
C          C       0.29455   0.64906   0.53773
C          C       0.31806   0.62936   0.52959
C          C       0.36045   0.65175   0.53133
C          C       0.37968   0.69465   0.54013
C          C       0.35740   0.71572   0.54707
C          C       0.31422   0.69260   0.54770
C          C       0.38480   0.63033   0.52404
C          C       0.37478   0.59438   0.60452
C          C       0.39785   0.57436   0.59838
C          C       0.43163   0.59010   0.51144
C          C       0.44143   0.62580   0.93086
C          C       0.41833   0.64575   0.93672
O          O       0.29109   0.71172   0.57518
C          C       0.28400   0.73349   0.95488
C          C       0.26248   0.75606   0.51206
C          C       0.26513   0.79009   0.90521
C          C       0.21808   0.72526   0.53895
C          C       0.25915   0.82280   0.98261
N          N       0.45666   0.57108   0.50004
C          C       0.45378   0.53905   0.57012
C          C       0.48207   0.52309   0.54470
C          C       0.47655   0.48642   0.61155
C          C       0.50407   0.47206   0.58629
C          C       0.53632   0.49334   0.99470
C          C       0.54191   0.53009   0.92836
C          C       0.51440   0.54442   0.95354
O          O       0.44357   0.46572   0.70178
C          C       0.43372   0.42555   0.75156
C          C       0.71933   0.36317   0.96308
C          C       0.69629   0.38320   0.97603
C          C       0.65396   0.36116   0.97811
C          C       0.63429   0.31827   0.96737
C          C       0.65609   0.29682   0.95587
C          C       0.69925   0.31959   0.95312
C          C       0.63015   0.38299   0.99060
C          C       0.64020   0.41932   0.91260
C          C       0.61772   0.43979   0.92375
C          C       0.58453   0.42421   0.51359
C          C       0.57458   0.38804   0.59123
C          C       0.59710   0.36761   0.58036
O          O       0.72196   0.30011   0.92397
C          C       0.72868   0.27768   0.54277
C          C       0.75023   0.25531   0.98423
C          C       0.74773   0.22119   0.59026
C          C       0.79460   0.28626   0.95744
C          C       0.75405   0.18879   0.51219
N          N       0.56005   0.44367   0.52968
C          C       0.56437   0.47720   0.96752
O          O       0.57486   0.55081   0.83794
C          C       0.58473   0.59099   0.78836
H          H       0.30319   0.59614   0.52238
H          H       0.41260   0.71182   0.54626
H          H       0.34951   0.58211   0.67469
H          H       0.38896   0.54694   0.66253
H          H       0.46702   0.63806   0.86217
H          H       0.42634   0.67290   0.87094
H          H       0.26538   0.71207   0.86144
H          H       0.31326   0.75642   0.91448
H          H       0.27889   0.77096   0.62001
H          H       0.24191   0.77648   0.80998
H          H       0.29561   0.80613   0.86026
H          H       0.21697   0.70351   0.62643
H          H       0.20146   0.70762   0.93493
H          H       0.20201   0.74114   0.57812
H          H       0.22820   0.80946   0.52227
H          H       0.26302   0.84723   0.90246
H          H       0.28209   0.83704   0.57853
H          H       0.43081   0.52358   0.64791
H          H       0.50056   0.44415   0.63710
H          H       0.51795   0.57237   0.90291
H          H       0.45881   0.42650   0.82706
H          H       0.42675   0.40439   0.65492
H          H       0.40631   0.41360   0.81544
H          H       0.71147   0.41642   0.98368
H          H       0.60139   0.30146   0.96308
H          H       0.66500   0.43151   0.84025
H          H       0.62653   0.46734   0.86050
H          H       0.54937   0.37578   0.66168
H          H       0.58905   0.34013   0.64417
H          H       0.69931   0.25460   0.58199
H          H       0.74718   0.29860   0.63742
H          H       0.73380   0.24057   0.87608
H          H       0.71720   0.20490   0.63480
H          H       0.77083   0.23474   0.68585
H          H       0.79564   0.30818   0.87075
H          H       0.81072   0.27055   0.91726
H          H       0.81123   0.30373   0.56176
H          H       0.73130   0.17470   0.91562
H          H       0.75013   0.16421   0.59164
H          H       0.78511   0.20238   0.97337
H          H       0.58834   0.49381   0.89450
H          H       0.55963   0.59007   0.71296
H          H       0.61213   0.60294   0.72440
H          H       0.59173   0.61213   0.88509
C          C       0.41404   0.97286   0.71146
C          C       0.04520   0.43800   0.83557
C          C       0.95191   0.54862   0.67200
C          C       0.59818   0.03956   0.78050
H          H       0.38663   0.94785   0.75833
H          H       0.40400   0.98859   0.62599
H          H       0.43305   0.99441   0.80421
H          H       0.02883   0.43776   0.72730
H          H       0.02512   0.41250   0.90637
H          H       0.07115   0.43330   0.81229
H          H       0.93674   0.52022   0.73681
H          H       0.93274   0.56372   0.66836
H          H       0.98220   0.57016   0.72711
H          H       0.62559   0.06457   0.73365
H          H       0.57920   0.01798   0.68776
H          H       0.60821   0.02385   0.86609
