data_crystal

_cell_length_a    18.32000
_cell_length_b    18.32000
_cell_length_c    7.22000
_cell_angle_alpha 90.00000
_cell_angle_beta  90.00000
_cell_angle_gamma 120.00000

_space_group_name_Hall 'P 1'
_space_group_name_H-M_alt 'P 1'

loop_
_symmetry_equiv_pos_as_xyz
 'x,y,z'

loop_
_atom_site_label
_atom_site_type_symbol
_atom_site_fract_x
_atom_site_fract_y
_atom_site_fract_z
C          C       0.75363   0.36996   0.20036
C          C       0.63004   0.38367   0.20036
C          C       0.61633   0.24637   0.20036
C          C       0.71848   0.42275   0.20482
C          C       0.57725   0.29573   0.20482
C          C       0.70427   0.28152   0.20482
C          C       0.77034   0.51258   0.22796
C          C       0.48742   0.25776   0.22796
C          C       0.74224   0.22966   0.22796
C          C       0.85267   0.54980   0.30795
C          C       0.45020   0.30287   0.30795
C          C       0.69713   0.14733   0.30795
C          C       0.89984   0.63520   0.33623
C          C       0.36480   0.26464   0.33623
C          C       0.73536   0.10016   0.33623
C          C       0.86907   0.68913   0.28921
C          C       0.31087   0.17994   0.28921
C          C       0.82006   0.13093   0.28921
C          C       0.78856   0.65368   0.20882
C          C       0.34632   0.13488   0.20882
C          C       0.86512   0.21144   0.20882
C          C       0.74065   0.56860   0.17776
C          C       0.43140   0.17205   0.17776
C          C       0.82795   0.25935   0.17776
N          N       0.91922   0.77589   0.32115
N          N       0.22411   0.14333   0.32115
N          N       0.85667   0.08078   0.32115
C          C       0.89187   0.82863   0.33594
C          C       0.17137   0.06324   0.33594
C          C       0.93676   0.10813   0.33594
C          C       0.95172   0.91780   0.34247
C          C       0.08220   0.03392   0.34247
C          C       0.96608   0.04828   0.34247
N          N       0.03480   0.95072   0.34199
N          N       0.04928   0.08408   0.34199
N          N       0.91592   0.96520   0.34199
H          H       0.82237   0.39900   0.20710
H          H       0.60100   0.42337   0.20710
H          H       0.57663   0.17763   0.20710
H          H       0.87857   0.51025   0.35429
H          H       0.48975   0.36832   0.35429
H          H       0.63168   0.12143   0.35429
H          H       0.96251   0.66141   0.39977
H          H       0.33859   0.30110   0.39977
H          H       0.69890   0.03749   0.39977
H          H       0.76299   0.69399   0.16603
H          H       0.30601   0.06900   0.16603
H          H       0.93100   0.23701   0.16603
H          H       0.67892   0.54441   0.11098
H          H       0.45559   0.13451   0.11098
H          H       0.86549   0.32108   0.11098
H          H       0.82472   0.80996   0.33618
H          H       0.19004   0.01476   0.33618
H          H       0.98524   0.17528   0.33618
C          C       0.75363   0.36996   0.70037
C          C       0.63004   0.38367   0.70037
C          C       0.61633   0.24637   0.70037
C          C       0.71848   0.42275   0.70482
C          C       0.57725   0.29573   0.70482
C          C       0.70427   0.28152   0.70482
C          C       0.77034   0.51258   0.72796
C          C       0.48742   0.25776   0.72796
C          C       0.74224   0.22966   0.72796
C          C       0.85267   0.54980   0.80795
C          C       0.45020   0.30287   0.80795
C          C       0.69713   0.14733   0.80795
C          C       0.89984   0.63520   0.83623
C          C       0.36480   0.26464   0.83623
C          C       0.73536   0.10016   0.83623
C          C       0.86907   0.68913   0.78921
C          C       0.31087   0.17994   0.78921
C          C       0.82006   0.13093   0.78921
C          C       0.78856   0.65368   0.70882
C          C       0.34632   0.13488   0.70882
C          C       0.86512   0.21144   0.70882
C          C       0.74065   0.56860   0.67776
C          C       0.43140   0.17205   0.67776
C          C       0.82795   0.25935   0.67776
N          N       0.91922   0.77589   0.82115
N          N       0.22411   0.14333   0.82115
N          N       0.85667   0.08078   0.82115
C          C       0.89187   0.82863   0.83594
C          C       0.17137   0.06324   0.83594
C          C       0.93676   0.10813   0.83594
C          C       0.95172   0.91780   0.84247
C          C       0.08220   0.03392   0.84247
C          C       0.96608   0.04828   0.84247
N          N       0.03480   0.95072   0.84199
N          N       0.04928   0.08408   0.84199
N          N       0.91592   0.96520   0.84199
H          H       0.82237   0.39900   0.70710
H          H       0.60100   0.42337   0.70710
H          H       0.57663   0.17763   0.70710
H          H       0.87857   0.51025   0.85429
H          H       0.48975   0.36832   0.85429
H          H       0.63168   0.12143   0.85429
H          H       0.96251   0.66141   0.89977
H          H       0.33859   0.30110   0.89977
H          H       0.69890   0.03749   0.89977
H          H       0.76299   0.69399   0.66603
H          H       0.30601   0.06900   0.66603
H          H       0.93100   0.23701   0.66603
H          H       0.67892   0.54441   0.61098
H          H       0.45559   0.13451   0.61098
H          H       0.86549   0.32108   0.61098
H          H       0.82472   0.80996   0.83617
H          H       0.19004   0.01476   0.83617
H          H       0.98524   0.17528   0.83617
