data_crystal

_cell_length_a    18.55000
_cell_length_b    18.55000
_cell_length_c    7.20000
_cell_angle_alpha 90.00000
_cell_angle_beta  90.00000
_cell_angle_gamma 120.00000

_space_group_name_Hall 'P 1'
_space_group_name_H-M_alt 'P 1'

loop_
_symmetry_equiv_pos_as_xyz
 'x,y,z'

loop_
_atom_site_label
_atom_site_type_symbol
_atom_site_fract_x
_atom_site_fract_y
_atom_site_fract_z
C          C       0.75269   0.37070   0.29729
C          C       0.62930   0.38199   0.29729
C          C       0.61801   0.24731   0.29729
C          C       0.71674   0.42178   0.29415
C          C       0.57822   0.29496   0.29415
C          C       0.70504   0.28326   0.29415
C          C       0.76702   0.51087   0.27765
C          C       0.48913   0.25615   0.27765
C          C       0.74385   0.23298   0.27765
C          C       0.84891   0.54981   0.19992
C          C       0.45019   0.29910   0.19992
C          C       0.70090   0.15109   0.19992
C          C       0.89497   0.63466   0.17935
C          C       0.36534   0.26031   0.17935
C          C       0.73969   0.10503   0.17935
C          C       0.86351   0.68639   0.23242
C          C       0.31361   0.17712   0.23242
C          C       0.82288   0.13649   0.23242
C          C       0.78343   0.64919   0.31078
C          C       0.35081   0.13424   0.31078
C          C       0.86576   0.21657   0.31078
C          C       0.73652   0.56457   0.33393
C          C       0.43543   0.17195   0.33393
C          C       0.82805   0.26348   0.33393
N          N       0.91263   0.77265   0.20809
N          N       0.22735   0.13998   0.20809
N          N       0.86002   0.08737   0.20809
C          C       0.88541   0.82463   0.19864
C          C       0.17537   0.06078   0.19864
C          C       0.93922   0.11459   0.19864
C          C       0.94454   0.91301   0.19477
C          C       0.08699   0.03153   0.19477
C          C       0.96847   0.05546   0.19477
C          C       0.03077   0.94607   0.19409
C          C       0.05393   0.08470   0.19409
C          C       0.91530   0.96923   0.19409
H          H       0.82070   0.40029   0.29241
H          H       0.59971   0.42041   0.29241
H          H       0.57959   0.17930   0.29241
H          H       0.87536   0.51208   0.14936
H          H       0.48792   0.36328   0.14936
H          H       0.63672   0.12464   0.14936
H          H       0.95728   0.66224   0.11707
H          H       0.33776   0.29504   0.11707
H          H       0.70496   0.04272   0.11707
H          H       0.75747   0.68780   0.35828
H          H       0.31220   0.06967   0.35828
H          H       0.93033   0.24253   0.35828
H          H       0.67507   0.53887   0.39962
H          H       0.46113   0.13620   0.39962
H          H       0.86380   0.32493   0.39962
H          H       0.81887   0.80547   0.19934
H          H       0.19453   0.01340   0.19934
H          H       0.98660   0.18113   0.19934
H          H       0.05546   0.90327   0.19530
H          H       0.09673   0.15219   0.19530
H          H       0.84781   0.94454   0.19530
C          C       0.75269   0.37070   0.79729
C          C       0.62930   0.38199   0.79729
C          C       0.61801   0.24731   0.79729
C          C       0.71674   0.42178   0.79416
C          C       0.57822   0.29496   0.79416
C          C       0.70504   0.28326   0.79416
C          C       0.76702   0.51087   0.77765
C          C       0.48913   0.25615   0.77765
C          C       0.74385   0.23298   0.77765
C          C       0.84891   0.54981   0.69993
C          C       0.45019   0.29910   0.69993
C          C       0.70090   0.15109   0.69993
C          C       0.89497   0.63466   0.67935
C          C       0.36534   0.26031   0.67935
C          C       0.73969   0.10503   0.67935
C          C       0.86351   0.68639   0.73242
C          C       0.31361   0.17712   0.73242
C          C       0.82288   0.13649   0.73242
C          C       0.78343   0.64919   0.81078
C          C       0.35081   0.13424   0.81078
C          C       0.86576   0.21657   0.81078
C          C       0.73652   0.56457   0.83393
C          C       0.43543   0.17195   0.83393
C          C       0.82805   0.26348   0.83393
N          N       0.91263   0.77265   0.70809
N          N       0.22735   0.13998   0.70809
N          N       0.86002   0.08737   0.70809
C          C       0.88541   0.82463   0.69864
C          C       0.17537   0.06078   0.69864
C          C       0.93922   0.11459   0.69864
C          C       0.94454   0.91301   0.69478
C          C       0.08699   0.03153   0.69478
C          C       0.96847   0.05546   0.69478
C          C       0.03077   0.94607   0.69409
C          C       0.05393   0.08470   0.69409
C          C       0.91530   0.96923   0.69409
H          H       0.82070   0.40029   0.79241
H          H       0.59971   0.42041   0.79241
H          H       0.57959   0.17930   0.79241
H          H       0.87536   0.51208   0.64936
H          H       0.48792   0.36328   0.64936
H          H       0.63672   0.12464   0.64936
H          H       0.95728   0.66224   0.61708
H          H       0.33776   0.29504   0.61708
H          H       0.70496   0.04272   0.61708
H          H       0.75747   0.68780   0.85828
H          H       0.31220   0.06967   0.85828
H          H       0.93033   0.24253   0.85828
H          H       0.67507   0.53887   0.89962
H          H       0.46113   0.13620   0.89962
H          H       0.86380   0.32493   0.89962
H          H       0.81887   0.80547   0.69934
H          H       0.19453   0.01340   0.69934
H          H       0.98660   0.18113   0.69934
H          H       0.05546   0.90327   0.69530
H          H       0.09673   0.15219   0.69530
H          H       0.84781   0.94454   0.69530
