data_crystal

_cell_length_a    29.45800
_cell_length_b    29.45800
_cell_length_c    7.56680
_cell_angle_alpha 90.00000
_cell_angle_beta  90.00000
_cell_angle_gamma 120.00000

_space_group_name_Hall 'P 1'
_space_group_name_H-M_alt 'P 1'

loop_
_symmetry_equiv_pos_as_xyz
 'x,y,z'

loop_
_atom_site_label
_atom_site_type_symbol
_atom_site_fract_x
_atom_site_fract_y
_atom_site_fract_z
C          C       0.00288   0.24411   0.27339
C          C       0.02800   0.59835   0.36184
C          C       0.02238   0.51554   0.42700
C          C       0.60215   0.01824   0.45382
C          C       0.52001   0.01850   0.46778
C          C       0.31465   0.03647   0.54193
C          C       0.68055   0.29204   0.25852
C          C       0.71349   0.34613   0.25219
C          C       0.69179   0.37842   0.27155
C          C       0.63779   0.35721   0.29646
C          C       0.60543   0.30312   0.30229
C          C       0.62644   0.27023   0.28249
C          C       0.77067   0.36894   0.23801
C          C       0.61567   0.39137   0.32652
C          C       0.59242   0.21350   0.29777
N          N       0.56324   0.36999   0.39024
O          O       0.64253   0.43812   0.30244
O          O       0.54499   0.19451   0.30776
N          N       0.61492   0.18068   0.30808
O          O       0.78962   0.34088   0.22009
N          N       0.80424   0.42394   0.25216
C          C       0.07819   0.48364   0.35462
O          O       0.06634   0.40006   0.42383
C          C       0.10291   0.45310   0.42480
O          O       0.01755   0.29656   0.28512
C          C       0.06343   0.31882   0.38520
C          C       0.09394   0.37711   0.35547
O          O       0.91146   0.21510   0.28689
C          C       0.95001   0.21401   0.18301
C          C       0.95060   0.40470   0.32314
C          C       0.91116   0.34830   0.36071
O          O       0.92227   0.31600   0.25840
C          C       0.87439   0.26973   0.24622
C          C       0.88257   0.22714   0.16945
C          C       0.10768   0.60196   0.46912
C          C       0.05218   0.57063   0.41709
C          C       0.97484   0.57282   0.32121
C          C       0.88816   0.49513   0.29627
C          C       0.94448   0.51892   0.33594
O          O       0.93634   0.43644   0.42156
C          C       0.96808   0.48978   0.38951
O          O       0.04470   0.48620   0.48447
C          C       0.40713   0.91705   0.43017
O          O       0.31658   0.86049   0.36902
C          C       0.35136   0.89472   0.49444
O          O       0.24548   0.89356   0.31077
C          C       0.22745   0.84130   0.34929
C          C       0.26830   0.83589   0.45554
C          C       0.24466   0.96625   0.44066
C          C       0.21609   0.90760   0.41842
C          C       0.37066   0.06571   0.47447
N          N       0.85797   0.44538   0.28297
C          C       0.60501   0.09942   0.37513
C          C       0.57448   0.04466   0.43148
O          O       0.48971   0.04189   0.43817
O          O       0.74251   0.68772   0.49927
O          O       0.55111   0.49800   0.49095
N          N       0.54283   0.40209   0.43495
N          N       0.58414   0.12834   0.35543
O          O       0.29367   0.98312   0.51720
C          C       0.49095   0.07293   0.58247
C          C       0.45245   0.09179   0.55084
O          O       0.40142   0.05017   0.56729
C          C       0.49930   0.88536   0.59993
C          C       0.52314   0.94021   0.54541
C          C       0.57678   0.96660   0.50970
C          C       0.49441   0.96630   0.52314
O          O       0.44182   0.94293   0.57240
C          C       0.49707   0.38238   0.50679
C          C       0.47336   0.41390   0.55903
C          C       0.39403   0.41205   0.65529
C          C       0.42127   0.38635   0.61436
C          C       0.38584   0.48979   0.68059
C          C       0.41817   0.46597   0.64106
C          C       0.54130   0.58002   0.64736
O          O       0.49332   0.54851   0.55733
O          O       0.60762   0.66830   0.68955
C          C       0.55976   0.63651   0.60676
O          O       0.71333   0.74128   0.73512
C          C       0.67820   0.75642   0.67456
C          C       0.63277   0.71152   0.57888
C          C       0.77973   0.73204   0.58873
C          C       0.75739   0.76732   0.62704
C          C       0.47118   0.49503   0.58788
C          C       0.49929   0.46901   0.54948
C          C       0.58729   0.50070   0.62065
C          C       0.64273   0.53061   0.54924
O          O       0.65922   0.58354   0.53964
C          C       0.70179   0.60698   0.65517
C          C       0.75039   0.64772   0.55934
C          C       0.36060   0.63830   0.72380
C          C       0.38196   0.69237   0.71822
C          C       0.34965   0.71400   0.69471
C          C       0.29556   0.68097   0.67458
C          C       0.27361   0.62689   0.67955
C          C       0.30640   0.60585   0.70407
C          C       0.37248   0.77069   0.68030
C          C       0.21711   0.59268   0.64893
C          C       0.39500   0.61570   0.73774
N          N       0.18623   0.61410   0.58550
O          O       0.19692   0.54590   0.67230
O          O       0.44221   0.64391   0.75526
N          N       0.37336   0.56072   0.72397
O          O       0.34391   0.78938   0.67148
N          N       0.42798   0.80383   0.66899
N          N       0.44946   0.85628   0.62385
N          N       0.13346   0.58210   0.54086
N          N       0.40569   0.53954   0.69334
H          H       0.65353   0.19551   0.28081
H          H       0.78909   0.44807   0.23977
H          H       0.05541   0.46431   0.23689
H          H       0.10885   0.52320   0.32105
H          H       0.11646   0.46558   0.55946
H          H       0.13604   0.46032   0.34164
H          H       0.08723   0.30174   0.34598
H          H       0.05346   0.31095   0.52469
H          H       0.13178   0.39348   0.42134
H          H       0.09995   0.38505   0.21429
H          H       0.95176   0.23188   0.05534
H          H       0.94034   0.17351   0.16363
H          H       0.00026   0.22839   0.40562
H          H       0.03202   0.24010   0.19704
H          H       0.95055   0.41266   0.18262
H          H       0.98954   0.41286   0.36236
H          H       0.87202   0.34104   0.32913
H          H       0.91295   0.34005   0.50002
H          H       0.84814   0.27588   0.16107
H          H       0.85716   0.25810   0.37737
H          H       0.84466   0.19228   0.14613
H          H       0.90375   0.24056   0.04498
H          H       0.12793   0.64407   0.44570
H          H       0.95695   0.59549   0.27737
H          H       0.05109   0.64084   0.35013
H          H       0.87163   0.52061   0.27764
H          H       0.41475   0.94484   0.32370
H          H       0.41290   0.88546   0.38201
H          H       0.34334   0.92657   0.51657
H          H       0.34637   0.87367   0.61776
H          H       0.21970   0.81934   0.22652
H          H       0.19142   0.82576   0.42586
H          H       0.27258   0.85389   0.58473
H          H       0.25547   0.79447   0.47207
H          H       0.22182   0.97718   0.52560
H          H       0.24984   0.98472   0.31188
H          H       0.21053   0.88903   0.54720
H          H       0.17806   0.89475   0.35761
H          H       0.37108   0.05720   0.33462
H          H       0.38652   0.10766   0.49222
H          H       0.64409   0.03833   0.42715
H          H       0.64672   0.11617   0.34909
H          H       0.53098   0.64651   0.65453
H          H       0.56441   0.64266   0.46447
H          H       0.69842   0.78936   0.58421
H          H       0.66325   0.76819   0.78665
H          H       0.60503   0.72368   0.53768
H          H       0.64745   0.70099   0.46302
H          H       0.81471   0.75294   0.50732
H          H       0.78987   0.72039   0.71245
H          H       0.78686   0.80259   0.69372
H          H       0.74629   0.77804   0.50333
H          H       0.57804   0.46114   0.65598
H          H       0.58430   0.52064   0.73748
H          H       0.64376   0.51611   0.41776
H          H       0.66876   0.52480   0.63664
H          H       0.70919   0.57702   0.70923
H          H       0.69267   0.62580   0.76230
H          H       0.78364   0.66379   0.64955
H          H       0.75834   0.62950   0.44741
H          H       0.42412   0.71800   0.73226
H          H       0.27043   0.69786   0.65482
H          H       0.28951   0.56347   0.70791
H          H       0.20295   0.65355   0.57241
H          H       0.33409   0.53661   0.73648
H          H       0.45186   0.78897   0.69408
H          H       0.53027   0.10655   0.59604
H          H       0.48036   0.04964   0.70302
H          H       0.45812   0.10815   0.41827
H          H       0.45904   0.12187   0.64753
H          H       0.29125   0.04954   0.46987
H          H       0.31424   0.04451   0.68222
H          H       0.52442   0.86853   0.62101
H          H       0.59892   0.94634   0.52597
H          H       0.47496   0.34026   0.52978
H          H       0.35342   0.38966   0.69887
H          H       0.40161   0.34383   0.62563
H          H       0.34382   0.46446   0.69960
H          H       0.57043   0.57009   0.60298
H          H       0.53534   0.57337   0.78915
H          H       0.69703   0.26637   0.24468
H          H       0.71722   0.42081   0.26724
H          H       0.56344   0.28633   0.32243
H          H       0.54039   0.33056   0.40319
C          C       0.00288   0.24411   0.77339
C          C       0.02800   0.59835   0.86184
C          C       0.02238   0.51554   0.92700
C          C       0.68055   0.29204   0.75852
C          C       0.71349   0.34613   0.75219
C          C       0.69179   0.37842   0.77155
C          C       0.63779   0.35721   0.79646
C          C       0.60543   0.30312   0.80229
C          C       0.62644   0.27023   0.78249
C          C       0.77067   0.36894   0.73801
C          C       0.61567   0.39137   0.82652
C          C       0.59242   0.21350   0.79776
N          N       0.56324   0.36999   0.89024
O          O       0.64253   0.43812   0.80244
O          O       0.54499   0.19451   0.80776
N          N       0.61492   0.18068   0.80809
O          O       0.78962   0.34088   0.72009
N          N       0.80424   0.42394   0.75217
O          O       0.91146   0.21510   0.78689
C          C       0.95001   0.21401   0.68301
C          C       0.95060   0.40470   0.82314
C          C       0.91116   0.34830   0.86071
O          O       0.92227   0.31600   0.75840
C          C       0.87439   0.26973   0.74621
C          C       0.88257   0.22714   0.66945
C          C       0.97484   0.57282   0.82121
C          C       0.88816   0.49513   0.79627
C          C       0.94448   0.51892   0.83595
O          O       0.93634   0.43644   0.92156
C          C       0.96808   0.48978   0.88951
C          C       0.37066   0.06571   0.97447
N          N       0.85797   0.44538   0.78297
C          C       0.60215   0.01824   0.95383
C          C       0.60501   0.09942   0.87513
C          C       0.57448   0.04466   0.93148
O          O       0.48971   0.04189   0.93817
C          C       0.52001   0.01850   0.96778
N          N       0.54283   0.40209   0.93495
N          N       0.58414   0.12834   0.85543
H          H       0.78909   0.44807   0.73980
H          H       0.54039   0.33056   0.90319
H          H       0.65353   0.19551   0.78083
H          H       0.45812   0.10815   0.91826
H          H       0.29125   0.04954   0.96987
H          H       0.69703   0.26637   0.74468
H          H       0.71722   0.42081   0.76724
H          H       0.56344   0.28633   0.82243
H          H       0.95176   0.23188   0.55534
H          H       0.94034   0.17351   0.66363
H          H       0.95055   0.41266   0.68262
H          H       0.98954   0.41286   0.86236
H          H       0.87202   0.34104   0.82913
H          H       0.91295   0.34005   1.00002
H          H       0.84814   0.27588   0.66106
H          H       0.85715   0.25810   0.87735
H          H       0.84466   0.19228   0.64613
H          H       0.90375   0.24056   0.54497
H          H       0.95695   0.59549   0.77736
H          H       0.87163   0.52061   0.77763
H          H       0.37108   0.05720   0.83462
H          H       0.38652   0.10766   0.99223
H          H       0.64409   0.03833   0.92717
H          H       0.64672   0.11617   0.84909
C          C       0.07819   0.48364   0.85462
O          O       0.06634   0.40006   0.92383
C          C       0.10291   0.45310   0.92480
O          O       0.01755   0.29656   0.78512
C          C       0.06343   0.31882   0.88520
C          C       0.09394   0.37711   0.85547
C          C       0.10768   0.60196   0.96912
C          C       0.05218   0.57063   0.91710
O          O       0.04470   0.48620   0.98447
C          C       0.40713   0.91705   0.93017
O          O       0.31658   0.86049   0.86903
C          C       0.35136   0.89472   0.99444
O          O       0.24548   0.89356   0.81077
C          C       0.22745   0.84130   0.84929
C          C       0.26830   0.83589   0.95554
C          C       0.24466   0.96625   0.94066
C          C       0.21609   0.90760   0.91842
O          O       0.74251   0.68772   0.99927
O          O       0.55111   0.49800   0.99095
H          H       0.05541   0.46431   0.73689
H          H       0.10885   0.52320   0.82105
H          H       0.64745   0.70099   0.96302
H          H       0.56441   0.64266   0.96447
H          H       0.64376   0.51611   0.91776
H          H       0.75834   0.62950   0.94740
H          H       0.13604   0.46032   0.84164
H          H       0.08723   0.30174   0.84598
H          H       0.13178   0.39348   0.92134
H          H       0.09995   0.38505   0.71429
H          H       0.00026   0.22839   0.90562
H          H       0.03202   0.24010   0.69704
H          H       0.12793   0.64407   0.94570
H          H       0.05109   0.64084   0.85013
H          H       0.41290   0.88546   0.88201
H          H       0.41475   0.94484   0.82370
H          H       0.21970   0.81934   0.72652
H          H       0.19142   0.82576   0.92587
H          H       0.25547   0.79447   0.97207
H          H       0.24984   0.98472   0.81188
H          H       0.17806   0.89475   0.85761
C          C       0.49095   0.07293   0.08247
C          C       0.45245   0.09179   0.05083
O          O       0.40142   0.05017   0.06728
C          C       0.31465   0.03647   0.04193
C          C       0.49707   0.38238   0.00679
H          H       0.48036   0.04964   0.20302
H          H       0.53027   0.10655   0.09605
H          H       0.45904   0.12187   0.14752
H          H       0.31424   0.04451   0.18221
O          O       0.29367   0.98312   0.01720
C          C       0.49930   0.88536   0.09993
C          C       0.52314   0.94021   0.04541
C          C       0.57678   0.96660   0.00970
C          C       0.49441   0.96630   0.02314
O          O       0.44182   0.94293   0.07240
C          C       0.47336   0.41390   0.05903
C          C       0.39403   0.41205   0.15529
C          C       0.42127   0.38635   0.11436
C          C       0.38584   0.48979   0.18060
C          C       0.41817   0.46597   0.14106
C          C       0.54130   0.58002   0.14736
O          O       0.49332   0.54851   0.05733
O          O       0.60762   0.66830   0.18955
C          C       0.55976   0.63651   0.10676
O          O       0.71333   0.74128   0.23512
C          C       0.67820   0.75642   0.17455
C          C       0.63277   0.71152   0.07888
C          C       0.77973   0.73204   0.08873
C          C       0.75739   0.76732   0.12704
C          C       0.47118   0.49503   0.08787
C          C       0.49929   0.46901   0.04948
C          C       0.58729   0.50070   0.12065
C          C       0.64273   0.53061   0.04924
O          O       0.65922   0.58354   0.03964
C          C       0.70179   0.60698   0.15517
C          C       0.75039   0.64772   0.05933
C          C       0.36060   0.63830   0.22380
C          C       0.38196   0.69237   0.21822
C          C       0.34965   0.71400   0.19471
C          C       0.29556   0.68097   0.17458
C          C       0.27361   0.62689   0.17955
C          C       0.30640   0.60585   0.20407
C          C       0.37248   0.77069   0.18030
C          C       0.21711   0.59268   0.14893
C          C       0.39500   0.61570   0.23774
N          N       0.18623   0.61410   0.08550
O          O       0.19692   0.54590   0.17230
O          O       0.44221   0.64391   0.25526
N          N       0.37336   0.56072   0.22397
O          O       0.34391   0.78938   0.17148
N          N       0.42798   0.80383   0.16898
N          N       0.44946   0.85628   0.12385
N          N       0.13346   0.58210   0.04086
N          N       0.40569   0.53954   0.19334
H          H       0.47496   0.34026   0.02978
H          H       0.35342   0.38966   0.19887
H          H       0.34382   0.46446   0.19962
H          H       0.69842   0.78936   0.08420
H          H       0.66326   0.76819   0.28663
H          H       0.60503   0.72368   0.03768
H          H       0.52442   0.86853   0.12101
H          H       0.59892   0.94634   0.02597
H          H       0.40161   0.34383   0.12563
H          H       0.57043   0.57009   0.10297
H          H       0.53534   0.57337   0.28915
H          H       0.53098   0.64651   0.15453
H          H       0.78987   0.72039   0.21245
H          H       0.81471   0.75294   0.00732
H          H       0.78686   0.80259   0.19372
H          H       0.74629   0.77804   0.00333
H          H       0.58430   0.52064   0.23748
H          H       0.57804   0.46114   0.15598
H          H       0.66876   0.52480   0.13664
H          H       0.70919   0.57702   0.20923
H          H       0.69267   0.62581   0.26230
H          H       0.78365   0.66379   0.14953
H          H       0.42412   0.71800   0.23226
H          H       0.27043   0.69786   0.15482
H          H       0.28951   0.56347   0.20791
H          H       0.20295   0.65355   0.07241
H          H       0.33409   0.53661   0.23648
H          H       0.45186   0.78897   0.19405
H          H       0.11646   0.46558   0.05946
H          H       0.05346   0.31095   0.02469
H          H       0.34334   0.92657   0.01657
H          H       0.34637   0.87367   0.11776
H          H       0.27258   0.85389   0.08473
H          H       0.22182   0.97718   0.02560
H          H       0.21053   0.88903   0.04720
