data_crystal

_cell_length_a    30.06800
_cell_length_b    30.06800
_cell_length_c    7.47800
_cell_angle_alpha 90.00000
_cell_angle_beta  90.00000
_cell_angle_gamma 120.00000

_space_group_name_Hall 'P 1'
_space_group_name_H-M_alt 'P 1'

loop_
_symmetry_equiv_pos_as_xyz
 'x,y,z'

loop_
_atom_site_label
_atom_site_type_symbol
_atom_site_fract_x
_atom_site_fract_y
_atom_site_fract_z
C          C       0.61058   0.03856   0.93809
C          C       0.53081   0.04063   0.94481
H          H       0.43281   0.00544   0.84674
C          C       0.53094   0.95995   0.99972
C          C       0.58407   0.98625   0.97789
C          C       0.58470   0.06601   0.92036
C          C       0.50331   0.98638   0.97790
O          O       0.50606   0.06962   0.92875
C          C       0.42198   0.96511   0.85571
O          O       0.44971   0.95844   0.99671
C          C       0.51397   0.49168   0.96935
C          C       0.43273   0.41094   0.95914
C          C       0.40636   0.43687   0.99727
C          C       0.62428   0.32783   0.83256
C          C       0.64439   0.29456   0.82776
C          C       0.69760   0.31519   0.84112
C          C       0.73059   0.36845   0.85892
C          C       0.70984   0.40112   0.86383
C          C       0.65674   0.38116   0.84990
C          C       0.60981   0.23833   0.81927
C          C       0.78628   0.38978   0.88038
C          C       0.63509   0.41560   0.86111
N          N       0.81800   0.44200   0.93679
O          O       0.80524   0.36262   0.85462
O          O       0.66353   0.46220   0.86954
N          N       0.58071   0.39449   0.86659
O          O       0.56361   0.22051   0.80233
N          N       0.63010   0.20446   0.83715
N          N       0.59761   0.15157   0.86449
N          N       0.87039   0.46219   0.97018
N          N       0.55958   0.42610   0.89726
C          C       0.51039   0.40631   0.90809
C          C       0.48605   0.43760   0.94393
C          C       0.61670   0.12169   0.88479
O          O       0.56770   0.51727   0.95481
C          C       0.54595   0.60073   0.88024
H          H       0.60515   0.96571   0.99208
H          H       0.65208   0.05827   0.92059
H          H       0.43089   0.95297   0.73004
H          H       0.38096   0.94204   0.88216
H          H       0.41150   0.36945   0.94103
H          H       0.58294   0.31208   0.82271
H          H       0.71359   0.28973   0.83769
H          H       0.73524   0.44236   0.87860
H          H       0.80218   0.46469   0.95275
H          H       0.55714   0.35622   0.84809
H          H       0.66863   0.21892   0.82995
H          H       0.48597   0.36504   0.89014
H          H       0.65816   0.13827   0.87526
H          H       0.52468   0.59195   0.75508
H          H       0.56349   0.64163   0.90827
H          H       0.57579   0.59042   0.86919
O          O       0.95902   0.45637   0.98389
C          C       0.28858   0.64683   0.16308
C          C       0.32187   0.62690   0.15238
C          C       0.37501   0.65979   0.13847
C          C       0.39479   0.71318   0.13403
C          C       0.36212   0.73381   0.14408
C          C       0.30900   0.70036   0.15844
C          C       0.40950   0.63839   0.12197
C          C       0.38347   0.78997   0.13178
C          C       0.23262   0.61178   0.17136
N          N       0.43723   0.82306   0.10208
O          O       0.35531   0.80824   0.14341
O          O       0.21508   0.56519   0.17060
N          N       0.19861   0.63209   0.17648
O          O       0.45594   0.66712   0.11749
N          N       0.38864   0.58396   0.10719
N          N       0.42051   0.56324   0.07505
N          N       0.45788   0.87571   0.06827
C          C       0.50656   0.90443   0.03955
C          C       0.47170   0.06300   0.06971
C          C       0.48668   0.51857   0.00061
C          C       0.43260   0.49019   0.01945
C          C       0.40099   0.51408   0.05627
C          C       0.02997   0.60976   0.16282
C          C       0.03537   0.53411   0.08196
C          C       0.05092   0.46547   0.13845
O          O       0.06571   0.51190   0.04340
N          N       0.14596   0.60025   0.15554
C          C       0.11530   0.61870   0.16289
C          C       0.05945   0.58634   0.13581
O          O       0.51191   0.57229   0.02129
C          C       0.59486   0.55211   0.09571
C          C       0.89736   0.50795   0.03603
H          H       0.36471   0.41534   0.01002
H          H       0.01143   0.43722   0.10483
H          H       0.07614   0.45069   0.10150
H          H       0.05389   0.47302   0.28165
H          H       0.13125   0.65947   0.18997
H          H       0.58525   0.53145   0.22230
H          H       0.63599   0.56983   0.07196
H          H       0.58415   0.58174   0.10085
H          H       0.30627   0.58550   0.15491
H          H       0.28327   0.71599   0.16608
H          H       0.43607   0.73886   0.12262
H          H       0.35021   0.56011   0.12022
H          H       0.46098   0.80819   0.10550
H          H       0.35956   0.48941   0.06816
H          H       0.04838   0.64953   0.20742
H          H       0.21313   0.67031   0.19568
H          H       0.53072   0.88698   0.04491
H          H       0.49257   0.07413   0.19588
H          H       0.45459   0.08692   0.04512
H          H       0.44157   0.02287   0.07634
C          C       0.97723   0.58269   0.13321
C          C       0.95260   0.53154   0.07595
C          C       0.92987   0.41817   0.11389
C          C       0.98158   0.50640   0.05273
H          H       0.89918   0.42405   0.16389
H          H       0.91336   0.38028   0.05301
H          H       0.95477   0.42095   0.22424
H          H       0.95480   0.60157   0.15489
H          H       0.87836   0.53000   0.06314
C          C       0.02997   0.60976   0.66283
C          C       0.03537   0.53411   0.58196
C          C       0.61058   0.03856   0.43809
C          C       0.53081   0.04063   0.44481
H          H       0.43281   0.00544   0.34674
C          C       0.53094   0.95995   0.49972
C          C       0.58407   0.98625   0.47789
C          C       0.58470   0.06601   0.42036
C          C       0.50331   0.98638   0.47790
O          O       0.50606   0.06962   0.42874
C          C       0.42198   0.96511   0.35571
O          O       0.44971   0.95844   0.49672
C          C       0.51397   0.49168   0.46935
C          C       0.43273   0.41094   0.45914
C          C       0.40636   0.43687   0.49727
C          C       0.62428   0.32783   0.33256
C          C       0.64439   0.29456   0.32776
C          C       0.69760   0.31519   0.34112
C          C       0.73059   0.36845   0.35892
C          C       0.70984   0.40112   0.36383
C          C       0.65674   0.38116   0.34990
C          C       0.60981   0.23833   0.31927
C          C       0.78628   0.38978   0.38038
C          C       0.63509   0.41560   0.36111
N          N       0.81800   0.44200   0.43679
O          O       0.80524   0.36262   0.35462
O          O       0.66353   0.46220   0.36954
N          N       0.58071   0.39449   0.36659
O          O       0.56361   0.22051   0.30233
N          N       0.63010   0.20446   0.33715
N          N       0.59761   0.15157   0.36449
N          N       0.87039   0.46219   0.47018
N          N       0.55958   0.42610   0.39726
C          C       0.51039   0.40631   0.40809
C          C       0.48605   0.43760   0.44393
C          C       0.61670   0.12169   0.38479
O          O       0.95902   0.45637   0.48389
O          O       0.56770   0.51727   0.45481
C          C       0.54595   0.60073   0.38024
C          C       0.28858   0.64683   0.66308
C          C       0.32187   0.62690   0.65238
C          C       0.37501   0.65979   0.63848
C          C       0.39479   0.71318   0.63403
C          C       0.36212   0.73381   0.64408
C          C       0.30900   0.70036   0.65844
C          C       0.40950   0.63839   0.62197
C          C       0.38347   0.78997   0.63178
C          C       0.23262   0.61178   0.67135
N          N       0.43723   0.82306   0.60208
O          O       0.35531   0.80824   0.64341
O          O       0.21508   0.56519   0.67060
N          N       0.19861   0.63209   0.67648
O          O       0.45594   0.66712   0.61749
N          N       0.38864   0.58396   0.60719
N          N       0.42051   0.56324   0.57505
N          N       0.45788   0.87571   0.56827
C          C       0.50656   0.90443   0.53955
C          C       0.47170   0.06300   0.56972
C          C       0.48668   0.51857   0.50062
C          C       0.43260   0.49019   0.51945
C          C       0.40099   0.51408   0.55627
C          C       0.89736   0.50795   0.53602
C          C       0.97723   0.58269   0.63321
C          C       0.95260   0.53154   0.57595
C          C       0.92987   0.41817   0.61389
C          C       0.98158   0.50640   0.55273
C          C       0.05092   0.46547   0.63846
O          O       0.06571   0.51190   0.54340
N          N       0.14596   0.60025   0.65553
C          C       0.11530   0.61870   0.66289
C          C       0.05945   0.58634   0.63581
O          O       0.51191   0.57229   0.52129
C          C       0.59486   0.55211   0.59571
H          H       0.28327   0.71599   0.66608
H          H       0.46098   0.80819   0.60550
H          H       0.21313   0.67031   0.69570
H          H       0.53072   0.88698   0.54491
H          H       0.49257   0.07413   0.69588
H          H       0.45458   0.08692   0.54513
H          H       0.44157   0.02287   0.57636
H          H       0.35956   0.48941   0.56816
H          H       0.43607   0.73886   0.62261
H          H       0.35021   0.56011   0.62022
H          H       0.87836   0.53000   0.56312
H          H       0.04838   0.64953   0.70745
H          H       0.95480   0.60157   0.65489
H          H       0.89918   0.42405   0.66389
H          H       0.91336   0.38028   0.55301
H          H       0.95477   0.42095   0.72424
H          H       0.01143   0.43722   0.60485
H          H       0.07614   0.45069   0.60151
H          H       0.05389   0.47302   0.78166
H          H       0.13125   0.65947   0.68997
H          H       0.58525   0.53145   0.72230
H          H       0.63599   0.56983   0.57196
H          H       0.58415   0.58174   0.60085
H          H       0.43089   0.95297   0.23005
H          H       0.38096   0.94204   0.38215
H          H       0.41150   0.36945   0.44103
H          H       0.36471   0.41534   0.51002
H          H       0.58294   0.31208   0.32271
H          H       0.71359   0.28973   0.33769
H          H       0.73524   0.44236   0.37860
H          H       0.60515   0.96571   0.49208
H          H       0.65208   0.05827   0.42059
H          H       0.80218   0.46469   0.45275
H          H       0.55714   0.35622   0.34809
H          H       0.66863   0.21892   0.32994
H          H       0.48597   0.36504   0.39014
H          H       0.65816   0.13827   0.37526
H          H       0.52468   0.59195   0.25508
H          H       0.56349   0.64163   0.40827
H          H       0.57579   0.59042   0.36919
H          H       0.30627   0.58550   0.65490
