data_crystal

_cell_length_a    29.71400
_cell_length_b    29.71400
_cell_length_c    7.60080
_cell_angle_alpha 90.00000
_cell_angle_beta  90.00000
_cell_angle_gamma 120.00000

_space_group_name_Hall 'P 1'
_space_group_name_H-M_alt 'P 1'

loop_
_symmetry_equiv_pos_as_xyz
 'x,y,z'

loop_
_atom_site_label
_atom_site_type_symbol
_atom_site_fract_x
_atom_site_fract_y
_atom_site_fract_z
C          C       0.14389   0.42908   0.00464
C          C       0.04136   0.57913   0.01432
C          C       0.01234   0.52398   0.01986
C          C       0.09087   0.46068   0.04016
H          H       0.13315   0.42515   0.14311
H          H       0.00616   0.35916   0.09349
C          C       0.55797   0.73218   0.00494
C          C       0.40857   0.48111   0.01459
C          C       0.46372   0.50732   0.02013
C          C       0.52626   0.64746   0.04044
H          H       0.56192   0.72537   0.14339
H          H       0.29513   0.01994   0.02403
H          H       0.40695   0.07776   0.03990
H          H       0.38613   0.01162   0.08791
H          H       0.62771   0.66445   0.09379
H          H       0.69334   0.69173   0.02387
H          H       0.63919   0.57990   0.03983
H          H       0.59392   0.60078   0.08782
H          H       0.96788   0.29352   0.02352
H          H       0.91015   0.34757   0.03948
H          H       0.97631   0.39281   0.08757
C          C       0.48387   0.89179   0.06592
C          C       0.50738   0.94688   0.01473
C          C       0.25446   0.84395   0.00500
C          C       0.33919   0.89709   0.04052
O          O       0.43052   0.95384   0.08475
C          C       0.48125   0.97582   0.02025
C          C       0.37698   0.50453   0.06578
C          C       0.09646   0.61079   0.06553
C          C       0.26480   0.63633   0.22529
C          C       0.29760   0.61513   0.22485
C          C       0.35172   0.64746   0.22540
C          C       0.37300   0.70152   0.22496
C          C       0.34075   0.72331   0.22542
C          C       0.28667   0.69044   0.22487
C          C       0.38580   0.62491   0.21358
C          C       0.36338   0.78002   0.21362
C          C       0.20808   0.60217   0.21338
N          N       0.41684   0.81225   0.16715
O          O       0.33607   0.79936   0.23619
O          O       0.18867   0.55545   0.23592
N          N       0.17593   0.62339   0.16684
O          O       0.43253   0.65228   0.23620
N          N       0.36451   0.57146   0.16705
N          N       0.39683   0.55129   0.12596
N          N       0.43710   0.86481   0.12607
N          N       0.12336   0.59100   0.12572
O          O       0.03424   0.49522   0.08438
O          O       0.49254   0.55805   0.08464
H          H       0.56451   0.65527   0.08282
H          H       0.50466   0.64918   0.15352
H          H       0.33492   0.48133   0.05225
H          H       0.11531   0.65284   0.05187
H          H       0.33751   0.87379   0.15361
H          H       0.33132   0.92750   0.08289
H          H       0.26124   0.85469   0.14348
H          H       0.50707   0.87294   0.05235
H          H       0.06045   0.42241   0.08250
H          H       0.11417   0.48228   0.15326
H          H       0.32248   0.98162   0.09378
H          H       0.28089   0.57310   0.22407
H          H       0.41503   0.72680   0.22425
H          H       0.26138   0.70718   0.22411
H          H       0.44050   0.79676   0.16390
H          H       0.19141   0.66254   0.16351
H          H       0.32536   0.54780   0.16379
C          C       0.01711   0.60659   0.96022
C          C       0.03831   0.33802   0.87869
O          O       0.07517   0.34005   0.99716
C          C       0.12347   0.37532   0.92456
O          O       0.12250   0.45521   0.91668
H          H       0.18604   0.45111   0.99255
H          H       0.03947   0.64883   0.95287
H          H       0.05552   0.37331   0.79962
H          H       0.02543   0.30441   0.79298
H          H       0.15093   0.36200   0.95101
H          H       0.11928   0.37752   0.78299
C          C       0.59296   0.10867   0.87897
N          N       0.57342   0.13882   0.86777
C          C       0.58580   0.02365   0.91588
C          C       0.56126   0.05311   0.92387
C          C       0.44172   0.04424   0.87967
C          C       0.39624   0.04007   0.98306
O          O       0.35359   0.02444   0.87209
C          C       0.50850   0.02927   0.97526
O          O       0.48502   0.05979   0.99311
C          C       0.40686   0.40276   0.91574
C          C       0.38104   0.42932   0.96049
C          C       0.48478   0.39576   0.87887
C          C       0.46091   0.42738   0.92374
C          C       0.87957   0.50269   0.87862
C          C       0.93513   0.52663   0.92348
C          C       0.96466   0.58070   0.91546
N          N       0.84936   0.45293   0.86745
N          N       0.53453   0.41537   0.86766
C          C       0.95889   0.49770   0.97488
O          O       0.92830   0.44363   0.99274
C          C       0.48992   0.48015   0.97515
O          O       0.54398   0.50371   0.99302
C          C       0.63206   0.36976   0.80795
C          C       0.68601   0.39013   0.80824
C          C       0.70694   0.35712   0.80789
C          C       0.67328   0.30316   0.80828
C          C       0.61926   0.28214   0.80799
C          C       0.59898   0.31573   0.80833
C          C       0.76365   0.37895   0.81648
C          C       0.58430   0.22542   0.81669
C          C       0.61032   0.40465   0.81659
N          N       0.60540   0.19166   0.82967
O          O       0.53724   0.20717   0.81690
O          O       0.63919   0.45172   0.81675
N          N       0.55538   0.38346   0.82959
O          O       0.78183   0.35013   0.81666
N          N       0.79748   0.43390   0.82941
C          C       0.65339   0.67624   0.98000
C          C       0.64893   0.71775   0.87900
C          C       0.57085   0.54513   0.87959
C          C       0.61223   0.59064   0.98298
O          O       0.63931   0.63331   0.87202
O          O       0.64696   0.75261   0.99748
C          C       0.61175   0.76561   0.92487
O          O       0.53179   0.68460   0.91697
C          C       0.99230   0.33348   0.97968
C          C       0.94378   0.41586   0.87931
C          C       0.94786   0.37452   0.98269
O          O       0.96343   0.34750   0.87172
H          H       0.53591   0.75228   0.99294
H          H       0.63433   0.12485   0.85438
H          H       0.62622   0.04182   0.87421
H          H       0.45203   0.07291   0.77545
H          H       0.43093   0.00662   0.82200
H          H       0.94647   0.60292   0.87369
H          H       0.38465   0.36234   0.87404
H          H       0.33880   0.40946   0.95324
H          H       0.45963   0.35439   0.85426
H          H       0.86337   0.52785   0.85397
H          H       0.71189   0.43207   0.80874
H          H       0.68933   0.27727   0.80881
H          H       0.55705   0.29971   0.80890
H          H       0.64406   0.20614   0.81105
H          H       0.53123   0.34480   0.81096
H          H       0.78357   0.45856   0.81091
H          H       0.61364   0.69972   0.79992
H          H       0.68255   0.73844   0.79330
H          H       0.54415   0.55589   0.82067
H          H       0.58904   0.53427   0.77641
H          H       0.62502   0.80638   0.95138
H          H       0.60958   0.75924   0.78329
H          H       0.98142   0.44264   0.82166
H          H       0.91511   0.39755   0.77508
C          C       0.55916   0.97121   0.96064
C          C       0.31065   0.99551   0.98006
C          C       0.26908   0.94946   0.87906
O          O       0.23419   0.91257   0.99753
C          C       0.22110   0.86429   0.92492
O          O       0.30204   0.86542   0.91704
C          C       0.39278   0.92159   0.95864
C          C       0.49711   0.59388   0.95854
C          C       0.06645   0.48976   0.95827
H          H       0.23439   0.80180   0.99289
H          H       0.57903   0.94883   0.95334
H          H       0.28712   0.93222   0.79995
H          H       0.24838   0.96238   0.79339
H          H       0.18032   0.83683   0.95149
H          H       0.22746   0.86846   0.78333
H          H       0.39449   0.94489   0.84553
H          H       0.40068   0.89120   0.91635
H          H       0.45867   0.58567   0.91686
H          H       0.51850   0.59187   0.84532
H          H       0.09685   0.52805   0.91603
H          H       0.04315   0.46819   0.84513
C          C       0.01711   0.60659   0.46022
C          C       0.03831   0.33802   0.37869
C          C       0.01234   0.52398   0.51986
H          H       0.00616   0.35916   0.59349
C          C       0.58580   0.02365   0.41589
O          O       0.35359   0.02444   0.37209
C          C       0.50850   0.02927   0.47526
H          H       0.29513   0.01994   0.52403
C          C       0.59296   0.10867   0.37898
N          N       0.57342   0.13882   0.36776
C          C       0.55916   0.97121   0.46064
C          C       0.56126   0.05311   0.42386
C          C       0.31065   0.99551   0.48006
C          C       0.26908   0.94946   0.37906
C          C       0.44172   0.04424   0.37967
C          C       0.39624   0.04007   0.48306
O          O       0.23419   0.91257   0.49754
C          C       0.22110   0.86429   0.42492
O          O       0.30204   0.86542   0.41704
C          C       0.39278   0.92159   0.45864
O          O       0.48502   0.05979   0.49312
C          C       0.40686   0.40276   0.41573
C          C       0.38104   0.42932   0.46049
C          C       0.48478   0.39576   0.37887
C          C       0.46091   0.42738   0.42374
C          C       0.87957   0.50269   0.37861
C          C       0.93513   0.52663   0.42347
C          C       0.96466   0.58070   0.41546
N          N       0.84936   0.45293   0.36745
N          N       0.53453   0.41537   0.36766
C          C       0.95889   0.49770   0.47488
O          O       0.92830   0.44363   0.49274
C          C       0.48992   0.48015   0.47515
O          O       0.54398   0.50371   0.49302
C          C       0.63206   0.36976   0.30795
C          C       0.68601   0.39013   0.30824
C          C       0.70694   0.35712   0.30789
C          C       0.67328   0.30316   0.30828
C          C       0.61926   0.28214   0.30800
C          C       0.59898   0.31573   0.30834
C          C       0.76365   0.37895   0.31648
C          C       0.58430   0.22542   0.31669
C          C       0.61032   0.40465   0.31659
N          N       0.60540   0.19166   0.32967
O          O       0.53724   0.20717   0.31690
O          O       0.63919   0.45172   0.31675
N          N       0.55538   0.38346   0.32959
O          O       0.78183   0.35013   0.31666
N          N       0.79748   0.43390   0.32941
C          C       0.65339   0.67624   0.48000
C          C       0.64893   0.71775   0.37900
C          C       0.57085   0.54513   0.37959
C          C       0.61223   0.59064   0.48298
O          O       0.63931   0.63331   0.37202
O          O       0.64696   0.75261   0.49748
C          C       0.61175   0.76561   0.42486
O          O       0.53179   0.68460   0.41697
C          C       0.49711   0.59388   0.45854
C          C       0.99230   0.33348   0.47968
C          C       0.94378   0.41586   0.37931
C          C       0.94786   0.37452   0.48269
O          O       0.96343   0.34750   0.37172
O          O       0.07517   0.34005   0.49717
C          C       0.12347   0.37532   0.42456
O          O       0.12250   0.45521   0.41668
C          C       0.06645   0.48976   0.45827
C          C       0.48387   0.89179   0.56593
C          C       0.50738   0.94688   0.51473
C          C       0.25446   0.84395   0.50500
C          C       0.33919   0.89709   0.54052
O          O       0.43052   0.95384   0.58475
C          C       0.48125   0.97582   0.52025
C          C       0.37698   0.50453   0.56578
C          C       0.40857   0.48111   0.51459
C          C       0.09646   0.61079   0.56554
C          C       0.04136   0.57913   0.51433
C          C       0.26480   0.63633   0.72530
C          C       0.29760   0.61513   0.72485
C          C       0.35172   0.64746   0.72540
C          C       0.37300   0.70152   0.72496
C          C       0.34075   0.72331   0.72541
C          C       0.28667   0.69044   0.72486
C          C       0.38580   0.62491   0.71358
C          C       0.36338   0.78002   0.71362
C          C       0.20808   0.60217   0.71338
N          N       0.41684   0.81225   0.66716
O          O       0.33607   0.79936   0.73619
O          O       0.18867   0.55545   0.73592
N          N       0.17593   0.62339   0.66684
O          O       0.43253   0.65228   0.73620
N          N       0.36451   0.57146   0.66705
N          N       0.39683   0.55129   0.62596
N          N       0.43710   0.86481   0.62606
N          N       0.12336   0.59100   0.62572
O          O       0.03424   0.49522   0.58437
O          O       0.49254   0.55805   0.58464
C          C       0.46372   0.50732   0.52013
C          C       0.55797   0.73218   0.50494
C          C       0.52626   0.64746   0.54044
C          C       0.14389   0.42908   0.50465
C          C       0.09087   0.46068   0.54016
H          H       0.54415   0.55589   0.32067
H          H       0.58904   0.53427   0.27641
H          H       0.60958   0.75923   0.28328
H          H       0.62502   0.80638   0.45137
H          H       0.61364   0.69972   0.29992
H          H       0.68255   0.73844   0.29330
H          H       0.63919   0.57990   0.53983
H          H       0.59392   0.60078   0.58782
H          H       0.45867   0.58567   0.41686
H          H       0.51850   0.59187   0.34532
H          H       0.63433   0.12485   0.35442
H          H       0.62771   0.66445   0.59379
H          H       0.69334   0.69173   0.52387
H          H       0.78357   0.45856   0.31091
H          H       0.53123   0.34480   0.31096
H          H       0.64406   0.20614   0.31106
H          H       0.33880   0.40946   0.45325
H          H       0.94647   0.60292   0.37370
H          H       0.38465   0.36234   0.37402
H          H       0.39449   0.94489   0.34553
H          H       0.40068   0.89120   0.41635
H          H       0.22746   0.86846   0.28333
H          H       0.18032   0.83683   0.45149
H          H       0.28712   0.93222   0.29995
H          H       0.24838   0.96238   0.29339
H          H       0.45204   0.07291   0.27545
H          H       0.43093   0.00662   0.32200
H          H       0.32248   0.98162   0.59378
H          H       0.96788   0.29352   0.52352
H          H       0.02543   0.30441   0.29298
H          H       0.05552   0.37331   0.29962
H          H       0.98142   0.44264   0.32166
H          H       0.91511   0.39755   0.27508
H          H       0.91015   0.34757   0.53948
H          H       0.97631   0.39281   0.58757
H          H       0.11927   0.37752   0.28299
H          H       0.15093   0.36200   0.45100
H          H       0.09685   0.52805   0.41604
H          H       0.04316   0.46819   0.34513
H          H       0.50707   0.87294   0.55238
H          H       0.23439   0.80180   0.49289
H          H       0.26124   0.85469   0.64348
H          H       0.33751   0.87379   0.65361
H          H       0.33132   0.92750   0.58288
H          H       0.11531   0.65284   0.55189
H          H       0.28089   0.57310   0.72406
H          H       0.41503   0.72680   0.72426
H          H       0.26138   0.70718   0.72408
H          H       0.44050   0.79676   0.66393
H          H       0.19141   0.66254   0.66351
H          H       0.32536   0.54780   0.66379
H          H       0.40695   0.07776   0.53990
H          H       0.38613   0.01162   0.58791
H          H       0.57902   0.94883   0.45333
H          H       0.62622   0.04183   0.37424
H          H       0.45963   0.35439   0.35426
H          H       0.86337   0.52785   0.35395
H          H       0.03947   0.64883   0.45286
H          H       0.71189   0.43207   0.30874
H          H       0.68933   0.27727   0.30881
H          H       0.55705   0.29971   0.30891
H          H       0.33492   0.48133   0.55225
H          H       0.53591   0.75228   0.49295
H          H       0.56193   0.72537   0.64338
H          H       0.50466   0.64918   0.65351
H          H       0.56451   0.65527   0.58283
H          H       0.18604   0.45111   0.49257
H          H       0.13315   0.42515   0.64311
H          H       0.11417   0.48228   0.65326
H          H       0.06045   0.42241   0.58250
