data_crystal

_cell_length_a    29.73700
_cell_length_b    29.73700
_cell_length_c    7.63800
_cell_angle_alpha 90.00000
_cell_angle_beta  90.00000
_cell_angle_gamma 120.00000

_space_group_name_Hall 'P 1'
_space_group_name_H-M_alt 'P 1'

loop_
_symmetry_equiv_pos_as_xyz
 'x,y,z'

loop_
_atom_site_label
_atom_site_type_symbol
_atom_site_fract_x
_atom_site_fract_y
_atom_site_fract_z
C          C       0.00338   0.59005   0.27363
C          C       0.00739   0.51118   0.34354
C          C       0.02982   0.22487   0.29977
C          C       0.59018   0.01628   0.41353
C          C       0.50932   0.01226   0.49522
C          C       0.20679   0.02254   0.51458
C          C       0.87144   0.48979   0.43375
C          C       0.92603   0.51231   0.37882
C          C       0.95101   0.56434   0.31882
C          C       0.08776   0.59529   0.24450
C          C       0.03203   0.56430   0.28701
C          C       0.95413   0.48500   0.38926
C          C       0.48439   0.87847   0.32415
C          C       0.50923   0.93410   0.38006
C          C       0.56307   0.96350   0.36435
C          C       0.56412   0.04108   0.47869
C          C       0.37564   0.40202   0.41967
C          C       0.40145   0.37645   0.48030
C          C       0.37118   0.47990   0.33189
C          C       0.40237   0.45641   0.39059
C          C       0.36763   0.68363   0.22317
C          C       0.33562   0.70596   0.21677
C          C       0.28175   0.67275   0.20544
C          C       0.25991   0.61778   0.19971
C          C       0.29256   0.59606   0.20715
C          C       0.34649   0.62878   0.21812
C          C       0.35843   0.76352   0.23294
C          C       0.20312   0.58327   0.19681
C          C       0.38066   0.60608   0.23527
N          N       0.17017   0.60579   0.20384
O          O       0.18405   0.53538   0.19326
O          O       0.42761   0.63503   0.23636
N          N       0.35923   0.55052   0.25748
O          O       0.33066   0.78319   0.23042
N          N       0.41315   0.79632   0.25684
N          N       0.43474   0.84929   0.30565
N          N       0.11705   0.57436   0.23795
N          N       0.39093   0.53002   0.30737
C          C       0.48141   0.95748   0.45054
C          C       0.67229   0.81085   0.47420
C          C       0.61976   0.80721   0.45586
C          C       0.45627   0.48623   0.42577
C          C       0.48258   0.45987   0.48503
C          C       0.56758   0.50224   0.37521
C          C       0.62411   0.53271   0.42975
O          O       0.63601   0.58204   0.49529
C          C       0.55010   0.62903   0.46504
O          O       0.48333   0.54061   0.38981
O          O       0.51927   0.65026   0.41387
O          O       0.58662   0.76285   0.35657
C          C       0.53918   0.73995   0.44483
O          O       0.42724   0.92464   0.47203
C          C       0.07884   0.27117   0.37359
C          C       0.90073   0.19769   0.22383
C          C       0.94528   0.19369   0.30460
O          O       0.99239   0.23953   0.27052
C          C       0.82820   0.25512   0.39721
C          C       0.84079   0.21644   0.30817
O          O       0.89430   0.23604   0.31065
O          O       0.93175   0.43440   0.46007
C          C       0.90019   0.39483   0.33696
C          C       0.88151   0.34101   0.41730
O          O       0.84865   0.30180   0.30089
C          C       0.06253   0.43882   0.17736
C          C       0.01840   0.43874   0.27641
O          O       0.03712   0.48686   0.37021
C          C       0.08179   0.37607   0.21675
O          O       0.09005   0.42359   0.28768
O          O       0.10438   0.30920   0.24416
C          C       0.11265   0.35646   0.31767
C          C       0.31949   0.14829   0.44860
O          O       0.25996   0.05647   0.49084
C          C       0.44514   0.16328   0.46355
C          C       0.40396   0.17875   0.43671
C          C       0.46847   0.06098   0.42974
O          O       0.42904   0.11396   0.38837
N          N       0.84514   0.44319   0.50106
C          C       0.62158   0.26865   0.67415
C          C       0.59930   0.30101   0.67805
C          C       0.63034   0.35593   0.66270
C          C       0.68415   0.37839   0.64210
C          C       0.70693   0.34650   0.63849
C          C       0.67534   0.29169   0.65382
C          C       0.60628   0.38931   0.65525
C          C       0.76303   0.36979   0.60844
C          C       0.58866   0.21084   0.67703
O          O       0.78352   0.34295   0.62825
O          O       0.54295   0.19048   0.71716
N          N       0.60969   0.17855   0.62368
O          O       0.63342   0.43732   0.65417
C          C       0.59647   0.09731   0.52496
C          C       0.47923   0.37421   0.57114
C          C       0.45462   0.40470   0.51384
N          N       0.57725   0.12488   0.58783
N          N       0.55118   0.36559   0.64097
N          N       0.52877   0.39596   0.59345
C          C       0.73136   0.74086   0.52531
C          C       0.71679   0.77895   0.60712
O          O       0.66653   0.76572   0.55740
C          C       0.68569   0.60254   0.56579
C          C       0.71907   0.66011   0.51450
O          O       0.70033   0.69028   0.59371
O          O       0.53539   0.48866   0.52536
C          C       0.51623   0.57252   0.52744
C          C       0.52979   0.68980   0.53622
N          N       0.79328   0.42309   0.54922
C          C       0.19758   0.97526   0.62392
C          C       0.26741   0.10683   0.52182
O          O       0.35943   0.14469   0.53120
O          O       0.48371   0.03751   0.56251
C          C       0.44062   0.08678   0.51381
C          C       0.34322   0.90169   0.58354
C          C       0.40034   0.94283   0.57959
C          C       0.27734   0.91657   0.57376
O          O       0.31673   0.92068   0.68309
O          O       0.21665   0.94638   0.53787
C          C       0.25473   0.94856   0.64977
H          H       0.92899   0.58447   0.30791
H          H       0.02213   0.63008   0.22795
H          H       0.10477   0.63662   0.21800
H          H       0.85237   0.51268   0.41780
H          H       0.77678   0.44579   0.54276
H          H       0.18830   0.00937   0.38727
H          H       0.18994   0.04287   0.58217
H          H       0.21733   0.98866   0.74925
H          H       0.15606   0.95048   0.64594
H          H       0.23636   0.11013   0.45855
H          H       0.26651   0.11266   0.66225
H          H       0.46549   0.11378   0.61422
H          H       0.40466   0.05708   0.57335
H          H       0.33853   0.86629   0.64280
H          H       0.32782   0.89345   0.45078
H          H       0.40482   0.97875   0.52568
H          H       0.41611   0.94983   0.71184
H          H       0.24692   0.87604   0.56415
H          H       0.29312   0.93115   0.44407
H          H       0.28554   0.98876   0.66445
H          H       0.23760   0.93295   0.77721
H          H       0.63228   0.03824   0.40059
H          H       0.50914   0.86193   0.29802
H          H       0.58449   0.94548   0.31342
H          H       0.33407   0.37958   0.39429
H          H       0.38001   0.33462   0.50114
H          H       0.32988   0.45437   0.30792
H          H       0.40954   0.70886   0.23219
H          H       0.25623   0.68917   0.20095
H          H       0.27595   0.55409   0.20439
H          H       0.18542   0.64448   0.18407
H          H       0.32077   0.52610   0.23667
H          H       0.43702   0.78150   0.23861
H          H       0.69779   0.84482   0.55238
H          H       0.68918   0.81444   0.34487
H          H       0.62443   0.84177   0.38999
H          H       0.60303   0.80422   0.58511
H          H       0.63828   0.11620   0.50506
H          H       0.45495   0.33271   0.59473
H          H       0.52822   0.32706   0.66488
H          H       0.77199   0.75403   0.55335
H          H       0.72568   0.73985   0.38420
H          H       0.74390   0.81816   0.56242
H          H       0.71872   0.77729   0.74918
H          H       0.70367   0.58099   0.51559
H          H       0.68300   0.59923   0.70787
H          H       0.71808   0.66366   0.37283
H          H       0.75891   0.67429   0.55669
H          H       0.49235   0.57159   0.63704
H          H       0.54130   0.55761   0.56948
H          H       0.56428   0.69802   0.61083
H          H       0.49683   0.67657   0.62462
H          H       0.01487   0.19289   0.39296
H          H       0.03892   0.21265   0.17680
H          H       0.10486   0.25800   0.42100
H          H       0.06823   0.28794   0.48158
H          H       0.86511   0.16037   0.23530
H          H       0.90907   0.20801   0.08612
H          H       0.94654   0.16072   0.24803
H          H       0.93949   0.18829   0.44550
H          H       0.84498   0.26367   0.52808
H          H       0.78622   0.23783   0.40655
H          H       0.82725   0.21047   0.17314
H          H       0.82142   0.17958   0.37798
H          H       0.92283   0.39913   0.21969
H          H       0.86670   0.39862   0.30258
H          H       0.86046   0.33751   0.53789
H          H       0.91501   0.33668   0.44621
H          H       0.08865   0.47778   0.12831
H          H       0.04682   0.41189   0.06778
H          H       0.00209   0.40657   0.36896
H          H       0.09408   0.38197   0.08033
H          H       0.04063   0.34733   0.22448
H          H       0.10012   0.35008   0.45384
H          H       0.15381   0.38526   0.31106
H          H       0.32428   0.18656   0.47220
H          H       0.32074   0.14242   0.30835
H          H       0.45152   0.16171   0.60327
H          H       0.48119   0.19206   0.40190
H          H       0.39450   0.17655   0.29809
H          H       0.41857   0.21828   0.48319
H          H       0.44245   0.03137   0.33780
H          H       0.50276   0.09007   0.36044
H          H       0.55744   0.28348   0.69315
H          H       0.70840   0.42032   0.62889
H          H       0.69319   0.26744   0.64968
H          H       0.64873   0.19464   0.61145
H          H       0.56037   0.46708   0.30710
H          H       0.55886   0.52592   0.28830
H          H       0.57552   0.65217   0.57150
H          H       0.57349   0.62984   0.35407
H          H       0.64861   0.53787   0.31688
H          H       0.63134   0.51141   0.53136
H          H       0.50804   0.73066   0.35151
H          H       0.53976   0.76693   0.54244
H          H       0.98848   0.43420   0.18420
C          C       0.20679   0.02254   0.01458
C          C       0.26741   0.10683   0.02182
O          O       0.35943   0.14469   0.03120
O          O       0.48371   0.03751   0.06251
C          C       0.44062   0.08678   0.01381
C          C       0.59647   0.09731   0.02496
H          H       0.45152   0.16171   0.10328
H          H       0.18994   0.04287   0.08217
H          H       0.26651   0.11266   0.16225
H          H       0.46549   0.11378   0.11422
H          H       0.40466   0.05708   0.07336
N          N       0.84514   0.44319   0.00105
C          C       0.62158   0.26865   0.17415
C          C       0.59930   0.30101   0.17805
C          C       0.63034   0.35593   0.16270
C          C       0.68415   0.37839   0.14210
C          C       0.70693   0.34650   0.13848
C          C       0.67534   0.29169   0.15382
C          C       0.60628   0.38931   0.15525
C          C       0.76303   0.36979   0.10844
C          C       0.58866   0.21084   0.17703
O          O       0.78352   0.34295   0.12825
O          O       0.54295   0.19048   0.21716
N          N       0.60969   0.17855   0.12369
O          O       0.63342   0.43732   0.15418
C          C       0.47923   0.37421   0.07114
C          C       0.45462   0.40470   0.01384
N          N       0.57725   0.12488   0.08783
N          N       0.55118   0.36559   0.14097
N          N       0.52877   0.39596   0.09345
C          C       0.73136   0.74086   0.02531
C          C       0.71679   0.77895   0.10712
O          O       0.66653   0.76572   0.05740
C          C       0.68569   0.60254   0.06579
C          C       0.71907   0.66011   0.01449
O          O       0.70033   0.69028   0.09372
O          O       0.53539   0.48866   0.02536
C          C       0.51623   0.57252   0.02744
C          C       0.52979   0.68980   0.03622
N          N       0.79328   0.42309   0.04922
C          C       0.19758   0.97526   0.12392
C          C       0.34322   0.90169   0.08354
C          C       0.40034   0.94283   0.07959
C          C       0.27734   0.91657   0.07376
O          O       0.31673   0.92068   0.18309
O          O       0.21665   0.94638   0.03787
C          C       0.25473   0.94856   0.14977
H          H       0.55744   0.28348   0.19315
H          H       0.70840   0.42032   0.12890
H          H       0.69319   0.26744   0.14969
H          H       0.64874   0.19464   0.11148
H          H       0.53976   0.76693   0.04244
H          H       0.63828   0.11620   0.00506
H          H       0.45495   0.33271   0.09473
H          H       0.52822   0.32706   0.16488
H          H       0.77199   0.75403   0.05334
H          H       0.74390   0.81816   0.06242
H          H       0.71872   0.77729   0.24918
H          H       0.68300   0.59923   0.20787
H          H       0.70367   0.58099   0.01559
H          H       0.75892   0.67429   0.05667
H          H       0.38001   0.33462   0.00114
H          H       0.69779   0.84482   0.05238
H          H       0.60303   0.80422   0.08510
H          H       0.63134   0.51141   0.03135
H          H       0.57552   0.65217   0.07150
H          H       0.15606   0.95048   0.14594
H          H       0.21733   0.98866   0.24924
H          H       0.33853   0.86629   0.14280
H          H       0.41611   0.94983   0.21184
H          H       0.40482   0.97875   0.02568
H          H       0.24692   0.87604   0.06415
H          H       0.28554   0.98876   0.16445
H          H       0.23760   0.93295   0.27721
H          H       0.77678   0.44579   0.04277
H          H       0.49235   0.57159   0.13704
H          H       0.54130   0.55761   0.06948
H          H       0.56428   0.69802   0.11083
H          H       0.49683   0.67657   0.12462
H          H       0.84498   0.26368   0.02808
H          H       0.86046   0.33751   0.03789
C          C       0.59018   0.01628   0.91353
C          C       0.56412   0.04108   0.97869
C          C       0.50932   0.01226   0.99522
C          C       0.31949   0.14829   0.94860
O          O       0.25996   0.05647   0.99084
C          C       0.44514   0.16328   0.96356
C          C       0.40396   0.17875   0.93671
C          C       0.46847   0.06098   0.92974
O          O       0.42904   0.11396   0.88837
H          H       0.32428   0.18656   0.97220
H          H       0.32074   0.14242   0.80835
H          H       0.48119   0.19207   0.90192
H          H       0.41857   0.21828   0.98318
H          H       0.39451   0.17655   0.79809
H          H       0.44245   0.03137   0.83780
H          H       0.50276   0.09007   0.86044
H          H       0.63228   0.03824   0.90058
H          H       0.18830   0.00937   0.88726
H          H       0.23636   0.11013   0.95855
C          C       0.00338   0.59005   0.77362
C          C       0.08776   0.59529   0.74450
C          C       0.03203   0.56430   0.78701
C          C       0.00739   0.51118   0.84354
C          C       0.48439   0.87847   0.82415
C          C       0.50923   0.93410   0.88006
C          C       0.56307   0.96350   0.86435
C          C       0.37564   0.40202   0.91967
C          C       0.40145   0.37645   0.98030
C          C       0.37118   0.47990   0.83189
C          C       0.40237   0.45641   0.89059
C          C       0.36763   0.68363   0.72317
C          C       0.33562   0.70596   0.71677
C          C       0.28175   0.67275   0.70544
C          C       0.25991   0.61778   0.69971
C          C       0.29256   0.59606   0.70714
C          C       0.34649   0.62878   0.71812
C          C       0.35843   0.76352   0.73294
C          C       0.20312   0.58327   0.69681
C          C       0.38066   0.60608   0.73526
N          N       0.17017   0.60579   0.70384
O          O       0.18405   0.53538   0.69325
O          O       0.42761   0.63503   0.73636
N          N       0.35923   0.55052   0.75748
O          O       0.33066   0.78319   0.73042
N          N       0.41315   0.79632   0.75684
N          N       0.43474   0.84929   0.80564
N          N       0.11705   0.57436   0.73795
N          N       0.39093   0.53002   0.80737
C          C       0.48141   0.95748   0.95054
C          C       0.67229   0.81085   0.97420
C          C       0.61976   0.80721   0.95585
C          C       0.45627   0.48623   0.92577
C          C       0.48258   0.45987   0.98503
C          C       0.56758   0.50224   0.87521
C          C       0.62411   0.53271   0.92975
O          O       0.63601   0.58204   0.99530
C          C       0.55010   0.62903   0.96504
O          O       0.48333   0.54061   0.88981
O          O       0.51927   0.65026   0.91387
O          O       0.58662   0.76285   0.85657
C          C       0.53918   0.73995   0.94483
O          O       0.42724   0.92464   0.97203
C          C       0.02982   0.22487   0.79977
C          C       0.07884   0.27117   0.87359
C          C       0.06253   0.43882   0.67736
C          C       0.01840   0.43874   0.77640
O          O       0.03712   0.48686   0.87021
C          C       0.08179   0.37607   0.71675
O          O       0.09005   0.42359   0.78768
O          O       0.10438   0.30920   0.74416
C          C       0.11265   0.35646   0.81767
C          C       0.87144   0.48979   0.93375
H          H       0.50804   0.73066   0.85151
H          H       0.01487   0.19289   0.89296
H          H       0.03892   0.21265   0.67680
H          H       0.10486   0.25800   0.92100
H          H       0.06823   0.28794   0.98158
H          H       0.08865   0.47778   0.62831
H          H       0.04683   0.41189   0.56778
H          H       0.00208   0.40657   0.86894
H          H       0.09408   0.38197   0.58033
H          H       0.04063   0.34733   0.72449
H          H       0.10012   0.35008   0.95384
H          H       0.15381   0.38526   0.81107
H          H       0.72568   0.73984   0.88420
H          H       0.71808   0.66366   0.87282
H          H       0.50914   0.86193   0.79803
H          H       0.58449   0.94548   0.81342
H          H       0.33407   0.37958   0.89429
H          H       0.32988   0.45437   0.80792
H          H       0.40954   0.70886   0.73219
H          H       0.25623   0.68917   0.70095
H          H       0.27595   0.55409   0.70436
H          H       0.18542   0.64448   0.68407
H          H       0.32077   0.52610   0.73667
H          H       0.43702   0.78150   0.73862
H          H       0.68919   0.81444   0.84488
H          H       0.62443   0.84177   0.88997
H          H       0.55886   0.52592   0.78830
H          H       0.56037   0.46708   0.80710
H          H       0.64861   0.53787   0.81688
H          H       0.57349   0.62984   0.85407
H          H       0.32782   0.89345   0.95078
H          H       0.29312   0.93115   0.94407
H          H       0.02213   0.63008   0.72793
H          H       0.10477   0.63662   0.71800
C          C       0.92603   0.51231   0.87882
C          C       0.95101   0.56434   0.81882
C          C       0.95413   0.48500   0.88926
C          C       0.90073   0.19769   0.72383
C          C       0.94528   0.19369   0.80460
O          O       0.99239   0.23953   0.77052
C          C       0.82820   0.25512   0.89721
C          C       0.84079   0.21644   0.80817
O          O       0.89430   0.23604   0.81066
O          O       0.93175   0.43440   0.96007
C          C       0.90019   0.39483   0.83696
C          C       0.88151   0.34101   0.91730
O          O       0.84865   0.30180   0.80088
H          H       0.86511   0.16037   0.73529
H          H       0.90907   0.20801   0.58612
H          H       0.94654   0.16072   0.74803
H          H       0.93949   0.18829   0.94550
H          H       0.78622   0.23783   0.90655
H          H       0.82725   0.21047   0.67314
H          H       0.82142   0.17958   0.87798
H          H       0.92283   0.39913   0.71969
H          H       0.86670   0.39862   0.80258
H          H       0.91501   0.33668   0.94621
H          H       0.98848   0.43420   0.68418
H          H       0.85237   0.51268   0.91780
H          H       0.92899   0.58447   0.80792
