data_crystal

_cell_length_a    36.10000
_cell_length_b    36.10000
_cell_length_c    8.40000
_cell_angle_alpha 90.00000
_cell_angle_beta  90.00000
_cell_angle_gamma 90.00000

_space_group_name_Hall 'P 1'
_space_group_name_H-M_alt 'P 1'

loop_
_symmetry_equiv_pos_as_xyz
 'x,y,z'

loop_
_atom_site_label
_atom_site_type_symbol
_atom_site_fract_x
_atom_site_fract_y
_atom_site_fract_z
C          C       0.97301   0.39131   0.10857
C          C       0.02699   0.60869   0.10857
C          C       0.60869   0.97301   0.10857
C          C       0.39131   0.02699   0.10857
C          C       0.01098   0.38842   0.10910
C          C       0.98902   0.61158   0.10910
C          C       0.61158   0.01098   0.10910
C          C       0.38842   0.98902   0.10910
C          C       0.96330   0.42603   0.05227
C          C       0.03670   0.57397   0.05227
C          C       0.57397   0.96330   0.05227
C          C       0.42603   0.03670   0.05227
C          C       0.06387   0.42803   0.02564
C          C       0.93613   0.57197   0.02564
C          C       0.57197   0.06387   0.02564
C          C       0.42803   0.93613   0.02564
C          C       0.09047   0.39609   0.02721
C          C       0.90953   0.60391   0.02721
C          C       0.60391   0.09047   0.02721
C          C       0.39609   0.90953   0.02721
C          C       0.08314   0.36421   0.43779
C          C       0.91686   0.63579   0.43779
C          C       0.63579   0.08314   0.43779
C          C       0.36421   0.91686   0.43779
C          C       0.10808   0.33471   0.43591
C          C       0.89192   0.66529   0.43591
C          C       0.66529   0.10808   0.43591
C          C       0.33471   0.89192   0.43591
C          C       0.14154   0.33728   0.01741
C          C       0.85846   0.66272   0.01741
C          C       0.66272   0.14154   0.01741
C          C       0.33728   0.85846   0.01741
C          C       0.15029   0.36949   0.10597
C          C       0.84971   0.63051   0.10597
C          C       0.63051   0.15029   0.10597
C          C       0.36949   0.84971   0.10597
C          C       0.12344   0.39788   0.11547
C          C       0.87656   0.60212   0.11547
C          C       0.60212   0.12344   0.11547
C          C       0.39788   0.87656   0.11547
N          N       0.16582   0.30868   0.00894
N          N       0.83418   0.69132   0.00894
N          N       0.69132   0.16582   0.00894
N          N       0.30868   0.83418   0.00894
C          C       0.19913   0.30944   0.08271
C          C       0.80087   0.69056   0.08271
C          C       0.69056   0.19913   0.08271
C          C       0.30944   0.80087   0.08271
C          C       0.20938   0.34065   0.16986
C          C       0.79062   0.65935   0.16986
C          C       0.65935   0.20938   0.16986
C          C       0.34065   0.79062   0.16986
C          C       0.18544   0.37131   0.18219
C          C       0.81456   0.62869   0.18219
C          C       0.62869   0.18544   0.18219
C          C       0.37131   0.81456   0.18219
C          C       0.22484   0.27806   0.06275
C          C       0.77516   0.72194   0.06275
C          C       0.72194   0.22484   0.06275
C          C       0.27806   0.77516   0.06275
C          C       0.26075   0.28486   0.00481
C          C       0.73925   0.71514   0.00481
C          C       0.71514   0.26075   0.00481
C          C       0.28486   0.73925   0.00481
C          C       0.28506   0.25551   0.47419
C          C       0.71494   0.74449   0.47419
C          C       0.74449   0.28506   0.47419
C          C       0.25551   0.71494   0.47419
C          C       0.27340   0.21892   0.00075
C          C       0.72660   0.78108   0.00075
C          C       0.78108   0.27340   0.00075
C          C       0.21892   0.72660   0.00075
C          C       0.23752   0.21206   0.05817
C          C       0.76248   0.78794   0.05817
C          C       0.78794   0.23752   0.05817
C          C       0.21206   0.76248   0.05817
C          C       0.21344   0.24117   0.09135
C          C       0.78656   0.75883   0.09135
C          C       0.75883   0.21344   0.09135
C          C       0.24117   0.78656   0.09135
C          C       0.29952   0.18802   0.47906
C          C       0.70048   0.81198   0.47906
C          C       0.81198   0.29952   0.47906
C          C       0.18802   0.70048   0.47906
C          C       0.28976   0.15666   0.39145
C          C       0.71024   0.84334   0.39145
C          C       0.84334   0.28976   0.39145
C          C       0.15666   0.71024   0.39145
C          C       0.31442   0.12660   0.37886
C          C       0.68558   0.87340   0.37886
C          C       0.87340   0.31442   0.37886
C          C       0.12660   0.68558   0.37886
C          C       0.34962   0.12925   0.45326
C          C       0.65038   0.87075   0.45326
C          C       0.87075   0.34962   0.45326
C          C       0.12925   0.65038   0.45326
C          C       0.35762   0.16126   0.04374
C          C       0.64238   0.83874   0.04374
C          C       0.83874   0.35762   0.04374
C          C       0.16126   0.64238   0.04374
N          N       0.33272   0.18920   0.05363
N          N       0.66728   0.81080   0.05363
N          N       0.81080   0.33272   0.05363
N          N       0.18920   0.66728   0.05363
C          C       0.37724   0.10177   0.44017
C          C       0.62276   0.89823   0.44017
C          C       0.89823   0.37724   0.44017
C          C       0.10177   0.62276   0.44017
C          C       0.41043   0.10421   0.02621
C          C       0.58957   0.89579   0.02621
C          C       0.89579   0.41043   0.02621
C          C       0.10421   0.58957   0.02621
C          C       0.41679   0.13560   0.12007
C          C       0.58321   0.86440   0.12007
C          C       0.86440   0.41679   0.12007
C          C       0.13560   0.58321   0.12007
C          C       0.39092   0.16425   0.12591
C          C       0.60908   0.83575   0.12591
C          C       0.83575   0.39092   0.12591
C          C       0.16425   0.60908   0.12591
C          C       0.42139   0.97421   0.05391
C          C       0.57861   0.02579   0.05391
C          C       0.02579   0.42139   0.05391
C          C       0.97421   0.57861   0.05391
N          N       0.44631   0.00371   0.01740
N          N       0.55369   0.99629   0.01740
N          N       0.99629   0.44631   0.01740
N          N       0.00371   0.55369   0.01740
C          C       0.52725   0.11322   0.45028
C          C       0.47275   0.88678   0.45028
C          C       0.88678   0.52725   0.45028
C          C       0.11322   0.47275   0.45028
C          C       0.48942   0.11578   0.44776
C          C       0.51058   0.88422   0.44776
C          C       0.88422   0.48942   0.44776
C          C       0.11578   0.51058   0.44776
C          C       0.47588   0.08157   0.49423
C          C       0.52412   0.91843   0.49423
C          C       0.91843   0.47588   0.49423
C          C       0.08157   0.52412   0.49423
N          N       0.50430   0.05814   0.02351
N          N       0.49570   0.94186   0.02351
N          N       0.94186   0.50430   0.02351
N          N       0.05814   0.49570   0.02351
C          C       0.53581   0.07746   0.49724
C          C       0.46419   0.92254   0.49724
C          C       0.92254   0.53581   0.49724
C          C       0.07746   0.46419   0.49724
C          C       0.43812   0.07330   0.02166
C          C       0.56188   0.92670   0.02166
C          C       0.92670   0.43812   0.02166
C          C       0.07330   0.56188   0.02166
C          C       0.19923   0.40430   0.27016
C          C       0.80077   0.59570   0.27016
C          C       0.59570   0.19923   0.27016
C          C       0.40430   0.80077   0.27016
O          O       0.22214   0.40031   0.37467
O          O       0.77786   0.59969   0.37467
O          O       0.59969   0.22214   0.37467
O          O       0.40031   0.77786   0.37467
O          O       0.18759   0.44005   0.23332
O          O       0.81241   0.55995   0.23332
O          O       0.55995   0.18759   0.23332
O          O       0.44005   0.81241   0.23332
C          C       0.30150   0.09307   0.29228
C          C       0.69850   0.90693   0.29228
C          C       0.90693   0.30150   0.29228
C          C       0.09307   0.69850   0.29228
O          O       0.28332   0.09695   0.17245
O          O       0.71668   0.90305   0.17245
O          O       0.90305   0.28332   0.17245
O          O       0.09695   0.71668   0.17245
O          O       0.30802   0.05713   0.34432
O          O       0.69198   0.94287   0.34432
O          O       0.94287   0.30802   0.34432
O          O       0.05713   0.69198   0.34432
O          O       0.32009   0.26236   0.41009
O          O       0.67991   0.73764   0.41009
O          O       0.73764   0.32009   0.41009
O          O       0.26236   0.67991   0.41009
O          O       0.17949   0.23220   0.16053
O          O       0.82051   0.76780   0.16053
O          O       0.76780   0.17949   0.16053
O          O       0.23220   0.82051   0.16053
H          H       0.95446   0.36918   0.14167
H          H       0.04554   0.63082   0.14167
H          H       0.63082   0.95446   0.14167
H          H       0.36918   0.04554   0.14167
H          H       0.02601   0.36370   0.14183
H          H       0.97399   0.63630   0.14183
H          H       0.63630   0.02601   0.14183
H          H       0.36370   0.97399   0.14183
H          H       0.05786   0.36210   0.37041
H          H       0.94214   0.63790   0.37041
H          H       0.63790   0.05786   0.37041
H          H       0.36210   0.94214   0.37041
H          H       0.10195   0.30994   0.36825
H          H       0.89805   0.69006   0.36825
H          H       0.69006   0.10195   0.36825
H          H       0.30994   0.89805   0.36825
H          H       0.12758   0.42171   0.18968
H          H       0.87242   0.57829   0.18968
H          H       0.57829   0.12758   0.18968
H          H       0.42171   0.87242   0.18968
H          H       0.23636   0.34137   0.22600
H          H       0.76364   0.65863   0.22600
H          H       0.65863   0.23636   0.22600
H          H       0.34137   0.76364   0.22600
H          H       0.26958   0.31291   0.47963
H          H       0.73042   0.68709   0.47963
H          H       0.68709   0.26958   0.47963
H          H       0.31291   0.73042   0.47963
H          H       0.22835   0.18409   0.08317
H          H       0.77165   0.81591   0.08317
H          H       0.81591   0.22835   0.08317
H          H       0.18409   0.77165   0.08317
H          H       0.26273   0.15537   0.33581
H          H       0.73727   0.84463   0.33581
H          H       0.84463   0.26273   0.33581
H          H       0.15537   0.73727   0.33581
H          H       0.37324   0.07812   0.36417
H          H       0.62676   0.92188   0.36417
H          H       0.92188   0.37324   0.36417
H          H       0.07812   0.62676   0.36417
H          H       0.44194   0.13798   0.18837
H          H       0.55806   0.86202   0.18837
H          H       0.86202   0.44194   0.18837
H          H       0.13798   0.55806   0.18837
H          H       0.39622   0.18873   0.19714
H          H       0.60378   0.81127   0.19714
H          H       0.81127   0.39622   0.19714
H          H       0.18873   0.60378   0.19714
H          H       0.46796   0.00204   0.43651
H          H       0.53204   0.99796   0.43651
H          H       0.99796   0.46796   0.43651
H          H       0.00204   0.53204   0.43651
H          H       0.54610   0.13569   0.42534
H          H       0.45390   0.86431   0.42534
H          H       0.86431   0.54610   0.42534
H          H       0.13569   0.45390   0.42534
H          H       0.47387   0.14053   0.42020
H          H       0.52613   0.85947   0.42020
H          H       0.85947   0.47387   0.42020
H          H       0.14053   0.52613   0.42020
H          H       0.20236   0.45875   0.29719
H          H       0.79764   0.54125   0.29719
H          H       0.54125   0.20236   0.29719
H          H       0.45875   0.79764   0.29719
H          H       0.32000   0.05653   0.45388
H          H       0.68000   0.94347   0.45388
H          H       0.94347   0.32000   0.45388
H          H       0.05653   0.68000   0.45388
H          H       0.32711   0.28962   0.40608
H          H       0.67289   0.71038   0.40608
H          H       0.71038   0.32711   0.40608
H          H       0.28962   0.67289   0.40608
H          H       0.16557   0.25414   0.20669
H          H       0.83443   0.74586   0.20669
H          H       0.74586   0.16557   0.20669
H          H       0.25414   0.83443   0.20669
C          C       0.97301   0.39131   0.60857
C          C       0.02699   0.60869   0.60857
C          C       0.60869   0.97301   0.60857
C          C       0.39131   0.02699   0.60857
C          C       0.01098   0.38842   0.60911
C          C       0.98902   0.61158   0.60911
C          C       0.61158   0.01098   0.60911
C          C       0.38842   0.98902   0.60911
C          C       0.96330   0.42603   0.55227
C          C       0.03670   0.57397   0.55227
C          C       0.57397   0.96330   0.55227
C          C       0.42603   0.03670   0.55227
C          C       0.06387   0.42803   0.52564
C          C       0.93613   0.57197   0.52564
C          C       0.57197   0.06387   0.52564
C          C       0.42803   0.93613   0.52564
C          C       0.09047   0.39609   0.52721
C          C       0.90953   0.60391   0.52721
C          C       0.60391   0.09047   0.52721
C          C       0.39609   0.90953   0.52721
C          C       0.08314   0.36421   0.93779
C          C       0.91686   0.63579   0.93779
C          C       0.63579   0.08314   0.93779
C          C       0.36421   0.91686   0.93779
C          C       0.10808   0.33471   0.93591
C          C       0.89192   0.66529   0.93591
C          C       0.66529   0.10808   0.93591
C          C       0.33471   0.89192   0.93591
C          C       0.14154   0.33728   0.51741
C          C       0.85846   0.66272   0.51741
C          C       0.66272   0.14154   0.51741
C          C       0.33728   0.85846   0.51741
C          C       0.15029   0.36949   0.60597
C          C       0.84971   0.63051   0.60597
C          C       0.63051   0.15029   0.60597
C          C       0.36949   0.84971   0.60597
C          C       0.12344   0.39788   0.61547
C          C       0.87656   0.60212   0.61547
C          C       0.60212   0.12344   0.61547
C          C       0.39788   0.87656   0.61547
N          N       0.16582   0.30868   0.50893
N          N       0.83418   0.69132   0.50893
N          N       0.69132   0.16582   0.50893
N          N       0.30868   0.83418   0.50893
C          C       0.19913   0.30944   0.58270
C          C       0.80087   0.69056   0.58270
C          C       0.69056   0.19913   0.58270
C          C       0.30944   0.80087   0.58270
C          C       0.20938   0.34065   0.66986
C          C       0.79062   0.65935   0.66986
C          C       0.65935   0.20938   0.66986
C          C       0.34065   0.79062   0.66986
C          C       0.18544   0.37131   0.68219
C          C       0.81456   0.62869   0.68219
C          C       0.62869   0.18544   0.68219
C          C       0.37131   0.81456   0.68219
C          C       0.22484   0.27806   0.56275
C          C       0.77516   0.72194   0.56275
C          C       0.72194   0.22484   0.56275
C          C       0.27806   0.77516   0.56275
C          C       0.26075   0.28486   0.50482
C          C       0.73925   0.71514   0.50482
C          C       0.71514   0.26075   0.50482
C          C       0.28486   0.73925   0.50482
C          C       0.28506   0.25551   0.97418
C          C       0.71494   0.74449   0.97418
C          C       0.74449   0.28506   0.97418
C          C       0.25551   0.71494   0.97418
C          C       0.27340   0.21892   0.50074
C          C       0.72660   0.78108   0.50074
C          C       0.78108   0.27340   0.50074
C          C       0.21892   0.72660   0.50074
C          C       0.23752   0.21206   0.55817
C          C       0.76248   0.78794   0.55817
C          C       0.78794   0.23752   0.55817
C          C       0.21206   0.76248   0.55817
C          C       0.21344   0.24117   0.59135
C          C       0.78656   0.75883   0.59135
C          C       0.75883   0.21344   0.59135
C          C       0.24117   0.78656   0.59135
C          C       0.29952   0.18802   0.97906
C          C       0.70048   0.81198   0.97906
C          C       0.81198   0.29952   0.97906
C          C       0.18802   0.70048   0.97906
C          C       0.28976   0.15666   0.89145
C          C       0.71024   0.84334   0.89145
C          C       0.84334   0.28976   0.89145
C          C       0.15666   0.71024   0.89145
C          C       0.31442   0.12660   0.87886
C          C       0.68558   0.87340   0.87886
C          C       0.87340   0.31442   0.87886
C          C       0.12660   0.68558   0.87886
C          C       0.34962   0.12925   0.95326
C          C       0.65038   0.87075   0.95326
C          C       0.87075   0.34962   0.95326
C          C       0.12925   0.65038   0.95326
C          C       0.35762   0.16126   0.54373
C          C       0.64238   0.83874   0.54373
C          C       0.83874   0.35762   0.54373
C          C       0.16126   0.64238   0.54373
N          N       0.33272   0.18920   0.55363
N          N       0.66728   0.81080   0.55363
N          N       0.81080   0.33272   0.55363
N          N       0.18920   0.66728   0.55363
C          C       0.37724   0.10177   0.94017
C          C       0.62276   0.89823   0.94017
C          C       0.89823   0.37724   0.94017
C          C       0.10177   0.62276   0.94017
C          C       0.41043   0.10421   0.52621
C          C       0.58957   0.89579   0.52621
C          C       0.89579   0.41043   0.52621
C          C       0.10421   0.58957   0.52621
C          C       0.41679   0.13560   0.62006
C          C       0.58321   0.86440   0.62006
C          C       0.86440   0.41679   0.62006
C          C       0.13560   0.58321   0.62006
C          C       0.39092   0.16425   0.62591
C          C       0.60908   0.83575   0.62591
C          C       0.83575   0.39092   0.62591
C          C       0.16425   0.60908   0.62591
C          C       0.42139   0.97421   0.55391
C          C       0.57861   0.02579   0.55391
C          C       0.02579   0.42139   0.55391
C          C       0.97421   0.57861   0.55391
N          N       0.44631   0.00371   0.51740
N          N       0.55369   0.99629   0.51740
N          N       0.99629   0.44631   0.51740
N          N       0.00371   0.55369   0.51740
C          C       0.52725   0.11322   0.95028
C          C       0.47275   0.88678   0.95028
C          C       0.88678   0.52725   0.95028
C          C       0.11322   0.47275   0.95028
C          C       0.48942   0.11578   0.94776
C          C       0.51058   0.88422   0.94776
C          C       0.88422   0.48942   0.94776
C          C       0.11578   0.51058   0.94776
C          C       0.47588   0.08157   0.99423
C          C       0.52412   0.91843   0.99423
C          C       0.91843   0.47588   0.99423
C          C       0.08157   0.52412   0.99423
N          N       0.50430   0.05814   0.52351
N          N       0.49570   0.94186   0.52351
N          N       0.94186   0.50430   0.52351
N          N       0.05814   0.49570   0.52351
C          C       0.53581   0.07746   0.99724
C          C       0.46419   0.92254   0.99724
C          C       0.92254   0.53581   0.99724
C          C       0.07746   0.46419   0.99724
C          C       0.43812   0.07330   0.52166
C          C       0.56188   0.92670   0.52166
C          C       0.92670   0.43812   0.52166
C          C       0.07330   0.56188   0.52166
C          C       0.19923   0.40430   0.77016
C          C       0.80077   0.59570   0.77016
C          C       0.59570   0.19923   0.77016
C          C       0.40430   0.80077   0.77016
O          O       0.22214   0.40031   0.87467
O          O       0.77786   0.59969   0.87467
O          O       0.59969   0.22214   0.87467
O          O       0.40031   0.77786   0.87467
O          O       0.18759   0.44005   0.73332
O          O       0.81241   0.55995   0.73332
O          O       0.55995   0.18759   0.73332
O          O       0.44005   0.81241   0.73332
C          C       0.30150   0.09307   0.79228
C          C       0.69850   0.90693   0.79228
C          C       0.90693   0.30150   0.79228
C          C       0.09307   0.69850   0.79228
O          O       0.28332   0.09695   0.67244
O          O       0.71668   0.90305   0.67244
O          O       0.90305   0.28332   0.67244
O          O       0.09695   0.71668   0.67244
O          O       0.30802   0.05713   0.84432
O          O       0.69198   0.94287   0.84432
O          O       0.94287   0.30802   0.84432
O          O       0.05713   0.69198   0.84432
O          O       0.32009   0.26236   0.91009
O          O       0.67991   0.73764   0.91009
O          O       0.73764   0.32009   0.91009
O          O       0.26236   0.67991   0.91009
O          O       0.17949   0.23220   0.66053
O          O       0.82051   0.76780   0.66053
O          O       0.76780   0.17949   0.66053
O          O       0.23220   0.82051   0.66053
H          H       0.95446   0.36918   0.64167
H          H       0.04554   0.63082   0.64167
H          H       0.63082   0.95446   0.64167
H          H       0.36918   0.04554   0.64167
H          H       0.02601   0.36370   0.64183
H          H       0.97399   0.63630   0.64183
H          H       0.63630   0.02601   0.64183
H          H       0.36370   0.97399   0.64183
H          H       0.05786   0.36210   0.87041
H          H       0.94214   0.63790   0.87041
H          H       0.63790   0.05786   0.87041
H          H       0.36210   0.94214   0.87041
H          H       0.10195   0.30994   0.86826
H          H       0.89805   0.69006   0.86826
H          H       0.69006   0.10195   0.86826
H          H       0.30994   0.89805   0.86826
H          H       0.12758   0.42171   0.68968
H          H       0.87242   0.57829   0.68968
H          H       0.57829   0.12758   0.68968
H          H       0.42171   0.87242   0.68968
H          H       0.23636   0.34137   0.72599
H          H       0.76364   0.65863   0.72599
H          H       0.65863   0.23636   0.72599
H          H       0.34137   0.76364   0.72599
H          H       0.26958   0.31291   0.97963
H          H       0.73042   0.68709   0.97963
H          H       0.68709   0.26958   0.97963
H          H       0.31291   0.73042   0.97963
H          H       0.22835   0.18409   0.58317
H          H       0.77165   0.81591   0.58317
H          H       0.81591   0.22835   0.58317
H          H       0.18409   0.77165   0.58317
H          H       0.26273   0.15537   0.83581
H          H       0.73727   0.84463   0.83581
H          H       0.84463   0.26273   0.83581
H          H       0.15537   0.73727   0.83581
H          H       0.37324   0.07812   0.86417
H          H       0.62676   0.92188   0.86417
H          H       0.92188   0.37324   0.86417
H          H       0.07812   0.62676   0.86417
H          H       0.44194   0.13798   0.68837
H          H       0.55806   0.86202   0.68837
H          H       0.86202   0.44194   0.68837
H          H       0.13798   0.55806   0.68837
H          H       0.39622   0.18873   0.69714
H          H       0.60378   0.81127   0.69714
H          H       0.81127   0.39622   0.69714
H          H       0.18873   0.60378   0.69714
H          H       0.46796   0.00204   0.93651
H          H       0.53204   0.99796   0.93651
H          H       0.99796   0.46796   0.93651
H          H       0.00204   0.53204   0.93651
H          H       0.54610   0.13569   0.92534
H          H       0.45390   0.86431   0.92534
H          H       0.86431   0.54610   0.92534
H          H       0.13569   0.45390   0.92534
H          H       0.47387   0.14053   0.92021
H          H       0.52613   0.85947   0.92021
H          H       0.85947   0.47387   0.92021
H          H       0.14053   0.52613   0.92021
H          H       0.20236   0.45875   0.79719
H          H       0.79764   0.54125   0.79719
H          H       0.54125   0.20236   0.79719
H          H       0.45875   0.79764   0.79719
H          H       0.32000   0.05653   0.95388
H          H       0.68000   0.94347   0.95388
H          H       0.94347   0.32000   0.95388
H          H       0.05653   0.68000   0.95388
H          H       0.32711   0.28962   0.90607
H          H       0.67289   0.71038   0.90607
H          H       0.71038   0.32711   0.90607
H          H       0.28962   0.67289   0.90607
H          H       0.16557   0.25414   0.70669
H          H       0.83443   0.74586   0.70669
H          H       0.74586   0.16557   0.70669
H          H       0.25414   0.83443   0.70669
