data_crystal

_cell_length_a    42.31000
_cell_length_b    38.50000
_cell_length_c    7.77000
_cell_angle_alpha 81.94000
_cell_angle_beta  99.65000
_cell_angle_gamma 91.05000

_space_group_name_Hall 'P 1'
_space_group_name_H-M_alt 'P 1'

loop_
_symmetry_equiv_pos_as_xyz
 'x,y,z'

loop_
_atom_site_label
_atom_site_type_symbol
_atom_site_fract_x
_atom_site_fract_y
_atom_site_fract_z
C          C       0.25877   0.47437   0.94364
C          C       0.28784   0.45595   0.97841
C          C       0.28871   0.41928   0.97736
C          C       0.25946   0.39720   0.97068
C          C       0.23967   0.39731   0.09873
C          C       0.21254   0.37602   0.09548
C          C       0.20517   0.35354   0.96765
C          C       0.22513   0.35310   0.84007
C          C       0.25210   0.37471   0.84214
C          C       0.83911   0.03546   0.87947
C          C       0.83679   0.07235   0.85482
C          C       0.86632   0.01869   0.84895
C          C       0.86530   0.09456   0.84179
C          C       0.87540   0.10533   0.67996
C          C       0.90299   0.12587   0.67394
C          C       0.92031   0.13628   0.82858
C          C       0.91017   0.12487   0.99067
C          C       0.88284   0.10433   0.99663
N          N       0.94876   0.15699   0.81876
C          C       0.99148   0.19552   0.92357
C          C       0.00852   0.19325   0.78511
C          C       0.03773   0.21069   0.78050
C          C       0.05053   0.23042   0.91482
C          C       0.03333   0.23274   0.05249
C          C       0.00411   0.21547   0.05667
C          C       0.08150   0.24902   0.91082
C          C       0.10854   0.23271   0.87366
C          C       0.13720   0.25020   0.87056
C          C       0.14072   0.28495   0.90604
C          C       0.11385   0.30170   0.94386
C          C       0.08462   0.28395   0.94617
N          N       0.17658   0.33285   0.96676
C          C       0.96097   0.17688   0.93485
C          C       0.17167   0.30333   0.90340
H          H       0.23613   0.46141   0.90969
H          H       0.24522   0.41400   0.20095
H          H       0.19733   0.37673   0.19403
H          H       0.21960   0.33675   0.73665
H          H       0.26711   0.37416   0.74253
H          H       0.88588   0.03335   0.80095
H          H       0.86213   0.09758   0.55970
H          H       0.91077   0.13387   0.54858
H          H       0.92360   0.13094   0.11370
H          H       0.87546   0.09572   0.12269
H          H       0.99933   0.17806   0.68058
H          H       0.05016   0.20900   0.67098
H          H       0.94893   0.18017   0.04397
H          H       0.19059   0.29126   0.85395
C          C       0.81397   0.01485   0.93640
C          C       0.80861   0.08887   0.87063
H          H       0.80749   0.11571   0.84765
C          C       0.37471   0.47597   0.07196
C          C       0.34661   0.45704   0.02948
C          C       0.34732   0.42065   0.01348
C          C       0.31816   0.40259   0.98827
C          C       0.37745   0.40032   0.01877
C          C       0.40174   0.41398   0.92612
C          C       0.42905   0.39414   0.92570
C          C       0.43244   0.35978   0.01339
C          C       0.40794   0.34564   0.10396
C          C       0.38092   0.36571   0.10641
C          C       0.78430   0.03185   0.96616
C          C       0.78120   0.06885   0.92873
C          C       0.76126   0.01047   0.03723
C          C       0.75267   0.08941   0.94893
C          C       0.72111   0.07865   0.89332
C          C       0.69495   0.09932   0.90455
C          C       0.69965   0.13170   0.96643
C          C       0.73103   0.14257   0.02453
C          C       0.75716   0.12176   0.01451
N          N       0.67199   0.15232   0.97077
C          C       0.64156   0.20381   0.98747
C          C       0.61160   0.18708   0.96938
C          C       0.58406   0.20447   0.98156
C          C       0.58473   0.23959   0.01223
C          C       0.61438   0.25708   0.02315
C          C       0.64250   0.23930   0.01249
C          C       0.55521   0.25790   0.03135
C          C       0.53351   0.24089   0.13319
C          C       0.50552   0.25780   0.14979
C          C       0.49861   0.29208   0.06535
C          C       0.52048   0.30944   0.96566
C          C       0.54859   0.29251   0.94945
N          N       0.46084   0.34044   0.00548
C          C       0.67165   0.18572   0.98013
C          C       0.46866   0.30903   0.08486
H          H       0.39787   0.46334   0.10967
H          H       0.39962   0.44006   0.85326
H          H       0.44759   0.40552   0.85521
H          H       0.40909   0.31926   0.17295
H          H       0.36264   0.35396   0.17773
H          H       0.74124   0.02130   0.08179
H          H       0.71642   0.05468   0.83678
H          H       0.67089   0.09064   0.85884
H          H       0.73560   0.16658   0.08158
H          H       0.78097   0.13062   0.06349
H          H       0.61597   0.28436   0.04282
H          H       0.66503   0.25330   0.02479
H          H       0.51588   0.33600   0.89989
H          H       0.56488   0.30625   0.87027
H          H       0.69339   0.20100   0.98177
H          H       0.45362   0.29454   0.16873
C          C       0.81782   0.97590   0.97730
C          C       0.37385   0.51391   0.07316
C          C       0.34472   0.53222   0.04664
C          C       0.34386   0.56881   0.04841
C          C       0.31445   0.58600   0.02506
C          C       0.37314   0.59065   0.06729
C          C       0.39598   0.58578   0.22176
C          C       0.42442   0.60501   0.23334
C          C       0.42952   0.63071   0.09458
C          C       0.40589   0.63696   0.94342
C          C       0.37796   0.61692   0.92961
C          C       0.79063   0.95467   0.03252
C          C       0.79257   0.91777   0.05174
C          C       0.76333   0.97210   0.05807
C          C       0.76462   0.89478   0.07463
C          C       0.74956   0.89355   0.22321
C          C       0.72198   0.87338   0.23536
C          C       0.71010   0.85281   0.10404
C          C       0.72598   0.85283   0.95913
C          C       0.75292   0.87380   0.94424
N          N       0.68096   0.83362   0.11477
C          C       0.64520   0.78487   0.07606
C          C       0.61648   0.80418   0.03763
C          C       0.58705   0.78698   0.03404
C          C       0.58575   0.75020   0.07348
C          C       0.61475   0.73114   0.11700
C          C       0.64411   0.74827   0.11455
C          C       0.55426   0.73208   0.07078
C          C       0.52865   0.74783   0.12760
C          C       0.49859   0.73159   0.12068
C          C       0.49367   0.69872   0.06283
C          C       0.51921   0.68305   0.00768
C          C       0.54849   0.69943   0.00924
N          N       0.45951   0.64879   0.10481
C          C       0.67631   0.80237   0.07100
C          C       0.46197   0.68219   0.05533
H          H       0.39670   0.52692   0.09502
H          H       0.39193   0.56659   0.33118
H          H       0.44236   0.60015   0.35101
H          H       0.40958   0.65648   0.83411
H          H       0.36028   0.62152   0.81053
H          H       0.74391   0.95865   0.09384
H          H       0.75861   0.90895   0.32696
H          H       0.70992   0.87362   0.34751
H          H       0.71693   0.83756   0.85477
H          H       0.76433   0.87423   0.82907
H          H       0.61674   0.83248   0.00542
H          H       0.56527   0.80252   0.99764
H          H       0.69572   0.78822   0.03633
H          H       0.44070   0.69858   0.01689
C          C       0.25803   0.51262   0.93380
C          C       0.28579   0.53184   0.98066
C          C       0.28495   0.56873   0.98906
C          C       0.25475   0.59047   0.97080
C          C       0.22652   0.57669   0.02796
C          C       0.19967   0.59790   0.01774
C          C       0.20118   0.63405   0.96936
C          C       0.22927   0.64856   0.91744
C          C       0.25513   0.62694   0.91206
C          C       0.84618   0.95939   0.95419
C          C       0.84969   0.92225   0.99517
C          C       0.86890   0.98037   0.87646
C          C       0.87893   0.90377   0.00212
C          C       0.90922   0.91820   0.05933
C          C       0.93759   0.89981   0.06343
C          C       0.93660   0.86589   0.01864
C          C       0.90673   0.85078   0.96605
C          C       0.87842   0.86935   0.95855
N          N       0.96612   0.84766   0.02347
C          C       0.99963   0.79621   0.04978
C          C       0.02466   0.81417   0.97783
C          C       0.05261   0.79628   0.96507
C          C       0.05670   0.76013   0.02827
C          C       0.03165   0.74300   0.10523
C          C       0.00397   0.76050   0.11377
C          C       0.08671   0.74149   0.01511
C          C       0.11629   0.75918   0.02647
C          C       0.14441   0.74184   0.01487
C          C       0.14369   0.70641   0.99188
C          C       0.11429   0.68869   0.97780
C          C       0.08612   0.70611   0.98742
N          N       0.17372   0.65491   0.97460
C          C       0.96917   0.81374   0.05472
C          C       0.17370   0.68831   0.98425
H          H       0.23542   0.52516   0.87728
H          H       0.22535   0.55003   0.09155
H          H       0.17807   0.58639   0.05770
H          H       0.23109   0.67637   0.87480
H          H       0.27541   0.63925   0.86054
H          H       0.88840   0.96918   0.82844
H          H       0.91126   0.94346   0.10570
H          H       0.96044   0.91168   0.10622
H          H       0.90510   0.82500   0.92508
H          H       0.85625   0.85706   0.90837
H          H       0.02246   0.84186   0.92844
H          H       0.07075   0.81086   0.90292
H          H       0.11292   0.66139   0.95773
H          H       0.06383   0.69192   0.96780
H          H       0.94929   0.79764   0.08900
H          H       0.19580   0.70306   0.99466
C          C       0.82107   0.90176   0.03625
H          H       0.82226   0.87342   0.06316
C          C       0.31676   0.47480   0.00667
C          C       0.31569   0.51367   0.01413
C          C       0.22639   0.67497   0.50905
C          C       0.19688   0.69215   0.48878
C          C       0.19525   0.72819   0.50326
C          C       0.16570   0.74348   0.50652
C          C       0.22380   0.75104   0.50356
C          C       0.24041   0.75394   0.36047
C          C       0.26786   0.77450   0.36019
C          C       0.27878   0.79319   0.50020
C          C       0.26197   0.79069   0.64344
C          C       0.23451   0.76982   0.64436
C          C       0.64027   0.11537   0.43006
C          C       0.64022   0.07847   0.43131
C          C       0.61174   0.13429   0.41848
C          C       0.61236   0.05754   0.42128
C          C       0.58544   0.06566   0.28904
C          C       0.55807   0.04466   0.28424
C          C       0.55731   0.01464   0.40798
C          C       0.58448   0.00579   0.53713
C          C       0.61181   0.02664   0.54155
N          N       0.52814   0.99491   0.40535
C          C       0.49501   0.94458   0.47518
C          C       0.46547   0.96240   0.42204
C          C       0.43691   0.94548   0.43796
C          C       0.43612   0.90980   0.50590
C          C       0.46536   0.89140   0.55588
C          C       0.49450   0.90867   0.54168
C          C       0.40556   0.89169   0.52500
C          C       0.38408   0.90479   0.61998
C          C       0.35532   0.88737   0.63915
C          C       0.34744   0.85685   0.56190
C          C       0.36901   0.84378   0.46677
C          C       0.39793   0.86093   0.44977
N          N       0.30766   0.81312   0.49440
C          C       0.52627   0.96210   0.47013
C          C       0.31678   0.83902   0.58111
H          H       0.24879   0.68841   0.54228
H          H       0.23228   0.73986   0.25000
H          H       0.28070   0.77595   0.25007
H          H       0.27032   0.80395   0.75620
H          H       0.22199   0.76776   0.75608
H          H       0.58874   0.12173   0.41719
H          H       0.58571   0.08801   0.18811
H          H       0.53739   0.05173   0.18346
H          H       0.58445   0.98346   0.63841
H          H       0.63214   0.01940   0.64475
H          H       0.36363   0.82028   0.40577
H          H       0.41421   0.85041   0.37610
H          H       0.54784   0.94686   0.52327
H          H       0.30160   0.84867   0.66336
C          C       0.67108   0.05990   0.45097
H          H       0.66997   0.03245   0.43302
C          C       0.66985   0.13329   0.45493
C          C       0.11057   0.67012   0.39767
C          C       0.13828   0.68920   0.44783
C          C       0.13687   0.72471   0.47981
C          C       0.10627   0.74341   0.48597
C          C       0.08193   0.72670   0.56972
C          C       0.05372   0.74452   0.57592
C          C       0.04973   0.77991   0.50588
C          C       0.07405   0.79708   0.42442
C          C       0.10190   0.77906   0.41476
C          C       0.70082   0.11368   0.47755
C          C       0.70077   0.07685   0.47108
C          C       0.72889   0.13224   0.52470
C          C       0.72881   0.05602   0.48185
C          C       0.75514   0.06871   0.40280
C          C       0.78146   0.04727   0.40444
C          C       0.78196   0.01218   0.48071
C          C       0.75628   0.99921   0.56374
C          C       0.73017   0.02074   0.56381
N          N       0.80887   0.99081   0.47105
C          C       0.83979   0.93796   0.49274
C          C       0.86698   0.95609   0.44822
C          C       0.89542   0.93802   0.45280
C          C       0.89743   0.90143   0.50271
C          C       0.86956   0.88320   0.53717
C          C       0.84107   0.90133   0.53307
C          C       0.92842   0.88243   0.51844
C          C       0.95800   0.89712   0.58450
C          C       0.98675   0.88031   0.58695
C          C       0.98758   0.84750   0.52878
C          C       0.95821   0.83159   0.47152
C          C       0.92904   0.84893   0.46506
N          N       0.02047   0.79746   0.51407
N          N       0.96076   0.92646   0.64809
S          S       0.00168   0.93668   0.71705
N          N       0.01205   0.89672   0.64951
C          C       0.81035   0.95678   0.50295
C          C       0.01856   0.83068   0.52552
H          H       0.08724   0.68228   0.36444
H          H       0.08461   0.69973   0.63120
H          H       0.03518   0.73090   0.63908
H          H       0.07125   0.82417   0.36397
H          H       0.11987   0.79314   0.34929
H          H       0.75174   0.11935   0.57172
H          H       0.75503   0.09486   0.33319
H          H       0.80109   0.05774   0.34001
H          H       0.75618   0.97270   0.63104
H          H       0.71134   0.00972   0.63318
H          H       0.86650   0.98432   0.41269
H          H       0.91581   0.95284   0.41624
H          H       0.87003   0.85503   0.57459
H          H       0.82022   0.88679   0.56596
H          H       0.95776   0.80615   0.42701
H          H       0.90704   0.83647   0.41311
H          H       0.79016   0.94152   0.53839
H          H       0.04009   0.84640   0.53943
C          C       0.11220   0.63296   0.37809
C          C       0.14172   0.61565   0.40050
C          C       0.14321   0.57961   0.38888
C          C       0.11460   0.55699   0.38578
C          C       0.09521   0.55170   0.22691
C          C       0.06848   0.52969   0.22862
C          C       0.06106   0.51246   0.38830
C          C       0.08050   0.51831   0.54745
C          C       0.10707   0.54027   0.54560
C          C       0.70010   0.18946   0.50539
C          C       0.70044   0.22644   0.50796
C          C       0.72860   0.17030   0.52007
C          C       0.72891   0.24652   0.52908
C          C       0.75459   0.23719   0.66807
C          C       0.78249   0.25745   0.68421
C          C       0.78493   0.28807   0.56640
C          C       0.75902   0.29805   0.43070
C          C       0.73131   0.27778   0.41367
N          N       0.81449   0.30734   0.58080
C          C       0.84829   0.35810   0.53040
C          C       0.87719   0.33876   0.56949
C          C       0.90671   0.35574   0.56131
C          C       0.90797   0.39234   0.51233
C          C       0.87900   0.41122   0.47681
C          C       0.85010   0.39462   0.48640
C          C       0.93915   0.41023   0.50544
C          C       0.96432   0.40367   0.64850
C          C       0.99321   0.42175   0.64766
C          C       0.99774   0.44637   0.50279
C          C       0.97295   0.45218   0.35663
C          C       0.94384   0.43432   0.35832
N          N       0.03304   0.49060   0.38489
C          C       0.81677   0.34071   0.52718
C          C       0.02811   0.46612   0.51085
H          H       0.08979   0.61958   0.34407
H          H       0.10075   0.56459   0.10251
H          H       0.05360   0.52582   0.10524
H          H       0.07508   0.50661   0.67384
H          H       0.12177   0.54442   0.66922
H          H       0.75175   0.18262   0.52771
H          H       0.75296   0.21444   0.76549
H          H       0.80223   0.24939   0.78951
H          H       0.76037   0.32094   0.33421
H          H       0.71211   0.28588   0.30506
H          H       0.87702   0.31053   0.60440
H          H       0.92854   0.34024   0.59098
H          H       0.97594   0.47067   0.24200
H          H       0.92500   0.43925   0.24471
H          H       0.79538   0.35639   0.47671
H          H       0.04627   0.45975   0.62639
C          C       0.22810   0.63710   0.50667
C          C       0.20061   0.61742   0.46050
C          C       0.20205   0.58098   0.44258
C          C       0.17284   0.56332   0.40295
C          C       0.23259   0.55981   0.46211
C          C       0.26080   0.57392   0.40600
C          C       0.28833   0.55330   0.42364
C          C       0.28775   0.51736   0.48186
C          C       0.25952   0.50254   0.53115
C          C       0.23275   0.52359   0.52544
C          C       0.63960   0.19086   0.45700
C          C       0.63978   0.22724   0.47019
C          C       0.61143   0.17236   0.41197
C          C       0.61212   0.24745   0.47647
C          C       0.58652   0.23302   0.55786
C          C       0.55976   0.25320   0.56432
C          C       0.55782   0.28855   0.49252
C          C       0.58371   0.30384   0.41817
C          C       0.61032   0.28361   0.41010
N          N       0.52950   0.30792   0.50047
C          C       0.49139   0.35588   0.43209
C          C       0.47001   0.33928   0.53718
C          C       0.44207   0.35649   0.55337
C          C       0.43502   0.39061   0.46527
C          C       0.45612   0.40672   0.35689
C          C       0.48405   0.38957   0.34108
C          C       0.40543   0.40910   0.48264
C          C       0.37623   0.39099   0.48461
C          C       0.34794   0.40883   0.49107
C          C       0.34825   0.44503   0.50047
C          C       0.37785   0.46245   0.50826
C          C       0.40555   0.44499   0.49883
N          N       0.31618   0.49700   0.48835
C          C       0.52115   0.33855   0.41289
C          C       0.31775   0.46305   0.50077
H          H       0.25128   0.62523   0.55418
H          H       0.26148   0.60044   0.33949
H          H       0.30990   0.56510   0.38448
H          H       0.25806   0.47497   0.57975
H          H       0.21225   0.51112   0.57408
H          H       0.58849   0.18527   0.36894
H          H       0.58733   0.20628   0.62207
H          H       0.54036   0.24117   0.62592
H          H       0.58387   0.33137   0.36659
H          H       0.62889   0.29649   0.34498
H          H       0.47482   0.31303   0.60677
H          H       0.42620   0.34324   0.63668
H          H       0.45073   0.43234   0.28120
H          H       0.49981   0.40256   0.25615
H          H       0.53534   0.35167   0.32006
H          H       0.29636   0.44726   0.50089
C          C       0.67054   0.17157   0.47602
C          C       0.67136   0.24477   0.48587
H          H       0.67251   0.27233   0.50034
C          C       0.16844   0.67270   0.45925
C          C       0.17034   0.63463   0.43661
H          H       0.11531   0.32858   0.97075
H          H       0.06436   0.29765   0.97438
H          H       0.53179   0.77268   0.17808
H          H       0.47927   0.74452   0.16288
H          H       0.96133   0.38515   0.76301
H          H       0.01193   0.41687   0.76188
N          N       0.87638   0.44829   0.43551
S          S       0.83562   0.46236   0.40667
N          N       0.82337   0.41783   0.45142
H          H       0.38978   0.92825   0.68105
H          H       0.33918   0.89779   0.71390
H          H       0.16533   0.77068   0.52755
H          H       0.31512   0.61348   0.04079
H          H       0.17265   0.53608   0.38249
H          H       0.31820   0.37483   0.97744
H          H       0.04271   0.24756   0.15834
H          H       0.99144   0.21747   0.16510
N          N       0.10982   0.19723   0.84376
S          S       0.14870   0.18607   0.80728
N          N       0.16217   0.22947   0.83548
H          H       0.46570   0.86383   0.60901
H          H       0.51668   0.89398   0.58408
N          N       0.46166   0.99833   0.34914
S          S       0.42033   0.01072   0.29766
N          N       0.40939   0.96713   0.37687
H          H       0.32573   0.39428   0.48739
H          H       0.37505   0.36314   0.47734
N          N       0.38290   0.49790   0.53674
S          S       0.42436   0.50908   0.55584
N          N       0.43357   0.46587   0.52104
H          H       0.53836   0.21462   0.20224
H          H       0.48925   0.24408   0.22946
N          N       0.60603   0.15271   0.92454
S          S       0.56431   0.14260   0.89284
N          N       0.55566   0.18468   0.94525
H          H       0.11798   0.78639   0.04701
H          H       0.16683   0.75606   0.02601
N          N       0.03230   0.70751   0.18600
S          S       0.99640   0.69594   0.27184
N          N       0.98154   0.73946   0.19810
H          H       0.61489   0.70301   0.15461
H          H       0.66608   0.73298   0.14560
N          N       0.51709   0.65114   0.93458
S          S       0.55366   0.64170   0.86414
N          N       0.57056   0.68120   0.93462
