data_crystal

_cell_length_a    51.09800
_cell_length_b    47.87500
_cell_length_c    8.83200
_cell_angle_alpha 90.00000
_cell_angle_beta  58.29500
_cell_angle_gamma 90.00000

_space_group_name_Hall 'P 1'
_space_group_name_H-M_alt 'P 1'

loop_
_symmetry_equiv_pos_as_xyz
 'x,y,z'

loop_
_atom_site_label
_atom_site_type_symbol
_atom_site_fract_x
_atom_site_fract_y
_atom_site_fract_z
C          C       0.44041   0.52580   0.29275
C          C       0.55959   0.52580   0.20725
C          C       0.94041   0.02580   0.29275
C          C       0.05959   0.02580   0.20725
C          C       0.55959   0.47420   0.20725
C          C       0.44041   0.47420   0.29275
C          C       0.05959   0.97420   0.20725
C          C       0.94041   0.97420   0.29275
C          C       0.47029   0.52575   0.26932
C          C       0.52971   0.52575   0.23068
C          C       0.97029   0.02575   0.26932
C          C       0.02971   0.02575   0.23068
C          C       0.52971   0.47425   0.23068
C          C       0.47029   0.47425   0.26932
C          C       0.02971   0.97425   0.23068
C          C       0.97029   0.97425   0.26932
C          C       0.48561   0.55066   0.25913
C          C       0.51439   0.55066   0.24087
C          C       0.98561   0.05066   0.25913
C          C       0.01439   0.05066   0.24087
C          C       0.51439   0.44934   0.24087
C          C       0.48561   0.44934   0.25913
C          C       0.01439   0.94934   0.24087
C          C       0.98561   0.94934   0.25913
C          C       0.42267   0.55183   0.30444
C          C       0.57733   0.55183   0.19556
C          C       0.92267   0.05183   0.30444
C          C       0.07733   0.05183   0.19556
C          C       0.57733   0.44817   0.19556
C          C       0.42267   0.44817   0.30444
C          C       0.07733   0.94817   0.19556
C          C       0.92267   0.94817   0.30444
C          C       0.56423   0.42711   0.32555
C          C       0.43577   0.42711   0.17445
C          C       0.06423   0.92711   0.32555
C          C       0.93577   0.92711   0.17445
C          C       0.43577   0.57289   0.17445
C          C       0.56423   0.57289   0.32555
C          C       0.93577   0.07289   0.17445
C          C       0.06423   0.07289   0.32555
C          C       0.58194   0.40483   0.32697
C          C       0.41806   0.40483   0.17303
C          C       0.08194   0.90483   0.32697
C          C       0.91806   0.90483   0.17303
C          C       0.41806   0.59517   0.17303
C          C       0.58194   0.59517   0.32697
C          C       0.91806   0.09517   0.17303
C          C       0.08194   0.09517   0.32697
C          C       0.61338   0.40272   0.19824
C          C       0.38662   0.40272   0.30176
C          C       0.11338   0.90272   0.19824
C          C       0.88662   0.90272   0.30176
C          C       0.38662   0.59728   0.30176
C          C       0.61338   0.59728   0.19824
C          C       0.88662   0.09728   0.30176
C          C       0.11338   0.09728   0.19824
C          C       0.62658   0.42324   0.06342
C          C       0.37342   0.42324   0.43657
C          C       0.12658   0.92324   0.06342
C          C       0.87342   0.92324   0.43657
C          C       0.37342   0.57676   0.43657
C          C       0.62658   0.57676   0.06342
C          C       0.87342   0.07676   0.43657
C          C       0.12658   0.07676   0.06342
C          C       0.60877   0.44563   0.06290
C          C       0.39123   0.44563   0.43710
C          C       0.10877   0.94563   0.06290
C          C       0.89123   0.94563   0.43710
C          C       0.39123   0.55437   0.43710
C          C       0.60877   0.55437   0.06290
C          C       0.89123   0.05437   0.43710
C          C       0.10877   0.05437   0.06290
N          N       0.63066   0.37993   0.21285
N          N       0.36934   0.37993   0.28715
N          N       0.13066   0.87993   0.21285
N          N       0.86934   0.87993   0.28715
N          N       0.36934   0.62007   0.28715
N          N       0.63066   0.62007   0.21285
N          N       0.86934   0.12007   0.28715
N          N       0.13066   0.12007   0.21285
C          C       0.66012   0.37504   0.11169
C          C       0.33988   0.37504   0.38831
C          C       0.16012   0.87504   0.11169
C          C       0.83988   0.87504   0.38831
C          C       0.33988   0.62496   0.38831
C          C       0.66012   0.62496   0.11169
C          C       0.83988   0.12496   0.38831
C          C       0.16012   0.12496   0.11169
C          C       0.72199   0.28235   0.22926
C          C       0.27801   0.28235   0.27074
C          C       0.22199   0.78235   0.22926
C          C       0.77801   0.78235   0.27074
C          C       0.27801   0.71765   0.27074
C          C       0.72199   0.71765   0.22926
C          C       0.77801   0.21765   0.27074
C          C       0.22199   0.21765   0.22926
S          S       0.70309   0.25668   0.39205
S          S       0.29691   0.25668   0.10795
S          S       0.20309   0.75668   0.39205
S          S       0.79691   0.75668   0.10795
S          S       0.29691   0.74332   0.10795
S          S       0.70309   0.74332   0.39205
S          S       0.79691   0.24332   0.10795
S          S       0.20309   0.24332   0.39205
N          N       0.74684   0.22043   0.37167
N          N       0.25316   0.22043   0.12833
N          N       0.24684   0.72043   0.37167
N          N       0.75316   0.72043   0.12833
N          N       0.25316   0.77957   0.12833
N          N       0.74684   0.77957   0.37167
N          N       0.75316   0.27957   0.12833
N          N       0.24684   0.27957   0.37167
H          H       0.47530   0.57079   0.27011
H          H       0.52470   0.57079   0.22989
H          H       0.97530   0.07079   0.27011
H          H       0.02470   0.07079   0.22989
H          H       0.52470   0.42921   0.22989
H          H       0.47530   0.42921   0.27011
H          H       0.02470   0.92921   0.22989
H          H       0.97530   0.92921   0.27011
C          C       0.65861   0.33225   0.28667
C          C       0.34139   0.33225   0.21333
C          C       0.15861   0.83225   0.28667
C          C       0.84139   0.83225   0.21333
C          C       0.34139   0.66775   0.21333
C          C       0.65861   0.66775   0.28667
C          C       0.84139   0.16775   0.21333
C          C       0.15861   0.16775   0.28667
C          C       0.67362   0.30998   0.31424
C          C       0.32638   0.30998   0.18576
C          C       0.17362   0.80998   0.31424
C          C       0.82638   0.80998   0.18576
C          C       0.32638   0.69002   0.18576
C          C       0.67362   0.69002   0.31424
C          C       0.82638   0.19002   0.18576
C          C       0.17362   0.19002   0.31424
C          C       0.72197   0.32465   0.05865
C          C       0.27803   0.32465   0.44135
C          C       0.22197   0.82465   0.05865
C          C       0.77803   0.82465   0.44135
C          C       0.27803   0.67535   0.44135
C          C       0.72197   0.67535   0.05865
C          C       0.77803   0.17535   0.44135
C          C       0.22197   0.17535   0.05865
C          C       0.70697   0.34683   0.03104
C          C       0.29303   0.34683   0.46896
C          C       0.20697   0.84683   0.03104
C          C       0.79303   0.84683   0.46896
C          C       0.29303   0.65317   0.46896
C          C       0.70697   0.65317   0.03104
C          C       0.79303   0.15317   0.46896
C          C       0.20697   0.15317   0.03104
C          C       0.67514   0.35100   0.14457
C          C       0.32486   0.35100   0.35543
C          C       0.17514   0.85100   0.14457
C          C       0.82486   0.85100   0.35543
C          C       0.32486   0.64900   0.35543
C          C       0.67514   0.64900   0.14457
C          C       0.82486   0.14900   0.35543
C          C       0.17514   0.14900   0.14457
C          C       0.23855   0.74302   0.31685
C          C       0.76145   0.74302   0.18314
C          C       0.73855   0.24302   0.31685
C          C       0.26145   0.24302   0.18314
C          C       0.76145   0.25698   0.18314
C          C       0.23855   0.25698   0.31685
C          C       0.26145   0.75698   0.18314
C          C       0.73855   0.75698   0.31685
C          C       0.20559   0.19414   0.20075
C          C       0.79441   0.19414   0.29924
C          C       0.70559   0.69414   0.20075
C          C       0.29441   0.69414   0.29924
C          C       0.79441   0.80586   0.29924
C          C       0.20559   0.80586   0.20075
C          C       0.29441   0.30586   0.29924
C          C       0.70559   0.30586   0.20075
H          H       0.54023   0.42796   0.42769
H          H       0.45977   0.42796   0.07231
H          H       0.04023   0.92796   0.42769
H          H       0.95977   0.92796   0.07231
H          H       0.45977   0.57204   0.07231
H          H       0.54023   0.57204   0.42769
H          H       0.95977   0.07204   0.07231
H          H       0.04023   0.07204   0.42769
H          H       0.57113   0.38933   0.43154
H          H       0.42887   0.38933   0.06846
H          H       0.07113   0.88933   0.43154
H          H       0.92887   0.88933   0.06846
H          H       0.42887   0.61067   0.06846
H          H       0.57113   0.61067   0.43154
H          H       0.92887   0.11067   0.06846
H          H       0.07113   0.11067   0.43154
H          H       0.65057   0.42250   0.45912
H          H       0.34943   0.42250   0.04088
H          H       0.15057   0.92250   0.45912
H          H       0.84943   0.92250   0.04088
H          H       0.34943   0.57750   0.04088
H          H       0.65057   0.57750   0.45912
H          H       0.84943   0.07750   0.04088
H          H       0.15057   0.07750   0.45912
H          H       0.61972   0.46128   0.45933
H          H       0.38028   0.46128   0.04067
H          H       0.11972   0.96128   0.45933
H          H       0.88028   0.96128   0.04067
H          H       0.38028   0.53872   0.04067
H          H       0.61972   0.53872   0.45933
H          H       0.88028   0.03872   0.04067
H          H       0.11972   0.03872   0.45933
H          H       0.67462   0.38867   0.00119
H          H       0.32538   0.38867   0.49881
H          H       0.17462   0.88867   0.00119
H          H       0.82538   0.88867   0.49881
H          H       0.32538   0.61133   0.49881
H          H       0.67462   0.61133   0.00119
H          H       0.82538   0.11133   0.49881
H          H       0.17462   0.11133   0.00119
H          H       0.63408   0.33486   0.37729
H          H       0.36592   0.33486   0.12271
H          H       0.13408   0.83486   0.37729
H          H       0.86592   0.83486   0.12271
H          H       0.36592   0.66514   0.12271
H          H       0.63408   0.66514   0.37729
H          H       0.86592   0.16514   0.12271
H          H       0.13408   0.16514   0.37729
H          H       0.66008   0.29618   0.42585
H          H       0.33992   0.29618   0.07415
H          H       0.16008   0.79618   0.42585
H          H       0.83992   0.79618   0.07415
H          H       0.33992   0.70382   0.07415
H          H       0.66008   0.70382   0.42585
H          H       0.83992   0.20382   0.07415
H          H       0.16008   0.20382   0.42585
H          H       0.74650   0.32219   0.46757
H          H       0.25350   0.32219   0.03243
H          H       0.24650   0.82219   0.46757
H          H       0.75350   0.82219   0.03243
H          H       0.25350   0.67781   0.03243
H          H       0.74650   0.67781   0.46757
H          H       0.75350   0.17781   0.03243
H          H       0.24650   0.17781   0.46757
H          H       0.72036   0.36079   0.41984
H          H       0.27964   0.36079   0.08017
H          H       0.22036   0.86079   0.41984
H          H       0.77964   0.86079   0.08017
H          H       0.27964   0.63921   0.08017
H          H       0.72036   0.63921   0.41984
H          H       0.77964   0.13921   0.08017
H          H       0.22036   0.13921   0.41984
C          C       0.51488   0.50000   0.24058
C          C       0.48512   0.50000   0.25942
C          C       0.01488   0.00000   0.24058
C          C       0.98512   0.00000   0.25942
C          C       0.57361   0.50000   0.19669
C          C       0.42639   0.50000   0.30331
C          C       0.07361   0.00000   0.19669
C          C       0.92639   0.00000   0.30331
H          H       0.59585   0.50000   0.18455
H          H       0.40415   0.50000   0.31545
H          H       0.09585   0.00000   0.18455
H          H       0.90415   0.00000   0.31545
C          C       0.44041   0.52580   0.79275
C          C       0.55959   0.52580   0.70725
C          C       0.94041   0.02580   0.79275
C          C       0.05959   0.02580   0.70725
C          C       0.55959   0.47420   0.70725
C          C       0.44041   0.47420   0.79275
C          C       0.05959   0.97420   0.70725
C          C       0.94041   0.97420   0.79275
C          C       0.47029   0.52575   0.76932
C          C       0.52971   0.52575   0.73068
C          C       0.97029   0.02575   0.76932
C          C       0.02971   0.02575   0.73068
C          C       0.52971   0.47425   0.73068
C          C       0.47029   0.47425   0.76932
C          C       0.02971   0.97425   0.73068
C          C       0.97029   0.97425   0.76932
C          C       0.48561   0.55066   0.75913
C          C       0.51439   0.55066   0.74087
C          C       0.98561   0.05066   0.75913
C          C       0.01439   0.05066   0.74087
C          C       0.51439   0.44934   0.74087
C          C       0.48561   0.44934   0.75913
C          C       0.01439   0.94934   0.74087
C          C       0.98561   0.94934   0.75913
C          C       0.42267   0.55183   0.80444
C          C       0.57733   0.55183   0.69556
C          C       0.92267   0.05183   0.80444
C          C       0.07733   0.05183   0.69556
C          C       0.57733   0.44817   0.69556
C          C       0.42267   0.44817   0.80444
C          C       0.07733   0.94817   0.69556
C          C       0.92267   0.94817   0.80444
C          C       0.56423   0.42711   0.82554
C          C       0.43577   0.42711   0.67446
C          C       0.06423   0.92711   0.82554
C          C       0.93577   0.92711   0.67446
C          C       0.43577   0.57289   0.67446
C          C       0.56423   0.57289   0.82554
C          C       0.93577   0.07289   0.67446
C          C       0.06423   0.07289   0.82554
C          C       0.58194   0.40483   0.82697
C          C       0.41806   0.40483   0.67303
C          C       0.08194   0.90483   0.82697
C          C       0.91806   0.90483   0.67303
C          C       0.41806   0.59517   0.67303
C          C       0.58194   0.59517   0.82697
C          C       0.91806   0.09517   0.67303
C          C       0.08194   0.09517   0.82697
C          C       0.61338   0.40272   0.69824
C          C       0.38662   0.40272   0.80176
C          C       0.11338   0.90272   0.69824
C          C       0.88662   0.90272   0.80176
C          C       0.38662   0.59728   0.80176
C          C       0.61338   0.59728   0.69824
C          C       0.88662   0.09728   0.80176
C          C       0.11338   0.09728   0.69824
C          C       0.62658   0.42324   0.56342
C          C       0.37342   0.42324   0.93657
C          C       0.12658   0.92324   0.56342
C          C       0.87342   0.92324   0.93657
C          C       0.37342   0.57676   0.93657
C          C       0.62658   0.57676   0.56342
C          C       0.87342   0.07676   0.93657
C          C       0.12658   0.07676   0.56342
C          C       0.60877   0.44563   0.56290
C          C       0.39123   0.44563   0.93710
C          C       0.10877   0.94563   0.56290
C          C       0.89123   0.94563   0.93710
C          C       0.39123   0.55437   0.93710
C          C       0.60877   0.55437   0.56290
C          C       0.89123   0.05437   0.93710
C          C       0.10877   0.05437   0.56290
N          N       0.63066   0.37993   0.71285
N          N       0.36934   0.37993   0.78715
N          N       0.13066   0.87993   0.71285
N          N       0.86934   0.87993   0.78715
N          N       0.36934   0.62007   0.78715
N          N       0.63066   0.62007   0.71285
N          N       0.86934   0.12007   0.78715
N          N       0.13066   0.12007   0.71285
C          C       0.66012   0.37504   0.61169
C          C       0.33988   0.37504   0.88831
C          C       0.16012   0.87504   0.61169
C          C       0.83988   0.87504   0.88831
C          C       0.33988   0.62496   0.88831
C          C       0.66012   0.62496   0.61169
C          C       0.83988   0.12496   0.88831
C          C       0.16012   0.12496   0.61169
C          C       0.72199   0.28235   0.72926
C          C       0.27801   0.28235   0.77074
C          C       0.22199   0.78235   0.72926
C          C       0.77801   0.78235   0.77074
C          C       0.27801   0.71765   0.77074
C          C       0.72199   0.71765   0.72926
C          C       0.77801   0.21765   0.77074
C          C       0.22199   0.21765   0.72926
S          S       0.70309   0.25668   0.89206
S          S       0.29691   0.25668   0.60795
S          S       0.20309   0.75668   0.89206
S          S       0.79691   0.75668   0.60795
S          S       0.29691   0.74332   0.60795
S          S       0.70309   0.74332   0.89206
S          S       0.79691   0.24332   0.60795
S          S       0.20309   0.24332   0.89206
N          N       0.74684   0.22043   0.87167
N          N       0.25316   0.22043   0.62833
N          N       0.24684   0.72043   0.87167
N          N       0.75316   0.72043   0.62833
N          N       0.25316   0.77957   0.62833
N          N       0.74684   0.77957   0.87167
N          N       0.75316   0.27957   0.62833
N          N       0.24684   0.27957   0.87167
H          H       0.47530   0.57079   0.77011
H          H       0.52470   0.57079   0.72989
H          H       0.97530   0.07079   0.77011
H          H       0.02470   0.07079   0.72989
H          H       0.52470   0.42921   0.72989
H          H       0.47530   0.42921   0.77011
H          H       0.02470   0.92921   0.72989
H          H       0.97530   0.92921   0.77011
C          C       0.65861   0.33225   0.78667
C          C       0.34139   0.33225   0.71333
C          C       0.15861   0.83225   0.78667
C          C       0.84139   0.83225   0.71333
C          C       0.34139   0.66775   0.71333
C          C       0.65861   0.66775   0.78667
C          C       0.84139   0.16775   0.71333
C          C       0.15861   0.16775   0.78667
C          C       0.67362   0.30998   0.81424
C          C       0.32638   0.30998   0.68576
C          C       0.17362   0.80998   0.81424
C          C       0.82638   0.80998   0.68576
C          C       0.32638   0.69002   0.68576
C          C       0.67362   0.69002   0.81424
C          C       0.82638   0.19002   0.68576
C          C       0.17362   0.19002   0.81424
C          C       0.72197   0.32465   0.55865
C          C       0.27803   0.32465   0.94136
C          C       0.22197   0.82465   0.55865
C          C       0.77803   0.82465   0.94136
C          C       0.27803   0.67535   0.94136
C          C       0.72197   0.67535   0.55865
C          C       0.77803   0.17535   0.94136
C          C       0.22197   0.17535   0.55865
C          C       0.70697   0.34683   0.53104
C          C       0.29303   0.34683   0.96896
C          C       0.20697   0.84683   0.53104
C          C       0.79303   0.84683   0.96896
C          C       0.29303   0.65317   0.96896
C          C       0.70697   0.65317   0.53104
C          C       0.79303   0.15317   0.96896
C          C       0.20697   0.15317   0.53104
C          C       0.67514   0.35100   0.64457
C          C       0.32486   0.35100   0.85543
C          C       0.17514   0.85100   0.64457
C          C       0.82486   0.85100   0.85543
C          C       0.32486   0.64900   0.85543
C          C       0.67514   0.64900   0.64457
C          C       0.82486   0.14900   0.85543
C          C       0.17514   0.14900   0.64457
C          C       0.23855   0.74302   0.81686
C          C       0.76145   0.74302   0.68315
C          C       0.73855   0.24302   0.81686
C          C       0.26145   0.24302   0.68315
C          C       0.76145   0.25698   0.68315
C          C       0.23855   0.25698   0.81686
C          C       0.26145   0.75698   0.68315
C          C       0.73855   0.75698   0.81686
C          C       0.20559   0.19414   0.70076
C          C       0.79441   0.19414   0.79924
C          C       0.70559   0.69414   0.70076
C          C       0.29441   0.69414   0.79924
C          C       0.79441   0.80586   0.79924
C          C       0.20559   0.80586   0.70076
C          C       0.29441   0.30586   0.79924
C          C       0.70559   0.30586   0.70076
H          H       0.54023   0.42796   0.92770
H          H       0.45977   0.42796   0.57231
H          H       0.04023   0.92796   0.92770
H          H       0.95977   0.92796   0.57231
H          H       0.45977   0.57204   0.57231
H          H       0.54023   0.57204   0.92770
H          H       0.95977   0.07204   0.57231
H          H       0.04023   0.07204   0.92770
H          H       0.57113   0.38933   0.93154
H          H       0.42887   0.38933   0.56846
H          H       0.07113   0.88933   0.93154
H          H       0.92887   0.88933   0.56846
H          H       0.42887   0.61067   0.56846
H          H       0.57113   0.61067   0.93154
H          H       0.92887   0.11067   0.56846
H          H       0.07113   0.11067   0.93154
H          H       0.65057   0.42250   0.95912
H          H       0.34943   0.42250   0.54088
H          H       0.15057   0.92250   0.95912
H          H       0.84943   0.92250   0.54088
H          H       0.34943   0.57750   0.54088
H          H       0.65057   0.57750   0.95912
H          H       0.84943   0.07750   0.54088
H          H       0.15057   0.07750   0.95912
H          H       0.61972   0.46128   0.95933
H          H       0.38028   0.46128   0.54067
H          H       0.11972   0.96128   0.95933
H          H       0.88028   0.96128   0.54067
H          H       0.38028   0.53872   0.54067
H          H       0.61972   0.53872   0.95933
H          H       0.88028   0.03872   0.54067
H          H       0.11972   0.03872   0.95933
H          H       0.67462   0.38867   0.50119
H          H       0.32538   0.38867   0.99881
H          H       0.17462   0.88867   0.50119
H          H       0.82538   0.88867   0.99881
H          H       0.32538   0.61133   0.99881
H          H       0.67462   0.61133   0.50119
H          H       0.82538   0.11133   0.99881
H          H       0.17462   0.11133   0.50119
H          H       0.63408   0.33486   0.87730
H          H       0.36592   0.33486   0.62271
H          H       0.13408   0.83486   0.87730
H          H       0.86592   0.83486   0.62271
H          H       0.36592   0.66514   0.62271
H          H       0.63408   0.66514   0.87730
H          H       0.86592   0.16514   0.62271
H          H       0.13408   0.16514   0.87730
H          H       0.66008   0.29618   0.92585
H          H       0.33992   0.29618   0.57415
H          H       0.16008   0.79618   0.92585
H          H       0.83992   0.79618   0.57415
H          H       0.33992   0.70382   0.57415
H          H       0.66008   0.70382   0.92585
H          H       0.83992   0.20382   0.57415
H          H       0.16008   0.20382   0.92585
H          H       0.74650   0.32219   0.96757
H          H       0.25350   0.32219   0.53243
H          H       0.24650   0.82219   0.96757
H          H       0.75350   0.82219   0.53243
H          H       0.25350   0.67781   0.53243
H          H       0.74650   0.67781   0.96757
H          H       0.75350   0.17781   0.53243
H          H       0.24650   0.17781   0.96757
H          H       0.72036   0.36079   0.91983
H          H       0.27964   0.36079   0.58017
H          H       0.22036   0.86079   0.91983
H          H       0.77964   0.86079   0.58017
H          H       0.27964   0.63921   0.58017
H          H       0.72036   0.63921   0.91983
H          H       0.77964   0.13921   0.58017
H          H       0.22036   0.13921   0.91983
C          C       0.51488   0.50000   0.74058
C          C       0.48512   0.50000   0.75942
C          C       0.01488   0.00000   0.74058
C          C       0.98512   0.00000   0.75942
C          C       0.57361   0.50000   0.69669
C          C       0.42639   0.50000   0.80331
C          C       0.07361   0.00000   0.69669
C          C       0.92639   0.00000   0.80331
H          H       0.59585   0.50000   0.68455
H          H       0.40415   0.50000   0.81545
H          H       0.09585   0.00000   0.68455
H          H       0.90415   0.00000   0.81545
