data_crystal
 
_cell_length_a    39.45090
_cell_length_b    39.45080
_cell_length_c    3.40000
_cell_angle_alpha 90.00000
_cell_angle_beta  90.00000
_cell_angle_gamma 120.00010
 
_symmetry_space_group_name_Hall 'P 1'
_symmetry_space_group_name_H-M  'P 1'
 
loop_
_symmetry_equiv_pos_as_xyz
 'x,y,z' 
 
loop_
_atom_site_label
_atom_site_type_symbol
_atom_site_fract_x
_atom_site_fract_y
_atom_site_fract_z
_atom_site_charge
C          C       0.38248   0.44757   1.47712   0.0000000000
N          N       0.41400   0.43653   1.47771   0.0000000000
C          C       0.45656   0.46802   1.47474   0.0000000000
C          C       0.48853   0.45651   1.46930   0.0000000000
C          C       0.53200   0.48852   1.46413   0.0000000000
H          H       0.39085   0.47972   1.47583   0.0000000000
H          H       0.48003   0.42440   1.46880   0.0000000000
H          H       0.55573   0.48002   1.45945   0.0000000000
C          C       0.61754   0.55244   1.46453   0.0000000000
N          N       0.58600   0.56347   1.46477   0.0000000000
C          C       0.54343   0.53198   1.46615   0.0000000000
C          C       0.51146   0.54350   1.47130   0.0000000000
C          C       0.46799   0.51148   1.47613   0.0000000000
H          H       0.60920   0.52030   1.46392   0.0000000000
H          H       0.51996   0.57559   1.47225   0.0000000000
H          H       0.44426   0.51998   1.48082   0.0000000000
C          C       0.05248   0.43500   1.47616   0.0000000000
N          N       0.06353   0.47756   1.47780   0.0000000000
C          C       0.03204   0.48863   1.47451   0.0000000000
C          C       0.04355   0.53211   1.47015   0.0000000000
C          C       0.01154   0.54358   1.46468   0.0000000000
H          H       0.02034   0.41121   1.47384   0.0000000000
H          H       0.07565   0.55571   1.47068   0.0000000000
H          H       0.02005   0.57580   1.46079   0.0000000000
C          C       0.94762   0.56519   1.46442   0.0000000000
N          N       0.93660   0.52263   1.46361   0.0000000000
C          C       0.96808   0.51155   1.46531   0.0000000000
C          C       0.95656   0.46805   1.46937   0.0000000000
C          C       0.98858   0.45660   1.47451   0.0000000000
H          H       0.97977   0.58900   1.46484   0.0000000000
H          H       0.92447   0.44446   1.46930   0.0000000000
H          H       0.98008   0.42437   1.47841   0.0000000000
C          C       0.06506   0.11757   1.48925   0.0000000000
N          N       0.02249   0.08605   1.48953   0.0000000000
C          C       0.01143   0.04350   1.48519   0.0000000000
C          C       0.96795   0.01153   1.47944   0.0000000000
C          C       0.95649   0.96806   1.47289   0.0000000000
H          H       0.08884   0.10921   1.48717   0.0000000000
H          H       0.94435   0.02003   1.47974   0.0000000000
H          H       0.92426   0.94434   1.46797   0.0000000000
C          C       0.93487   0.88252   1.47053   0.0000000000
N          N       0.97744   0.91406   1.47109   0.0000000000
C          C       0.98852   0.95663   1.47383   0.0000000000
C          C       0.03201   0.98860   1.47929   0.0000000000
C          C       0.04346   0.03207   1.48551   0.0000000000
H          H       0.91106   0.89086   1.47071   0.0000000000
H          H       0.05560   0.98010   1.47944   0.0000000000
H          H       0.07569   0.05579   1.49043   0.0000000000
C          C       0.68344   0.61971   1.46575   0.0000000000
C          C       0.72407   0.64159   1.46613   0.0000000000
H          H       0.66681   0.63476   1.46606   0.0000000000
H          H       0.73818   0.67320   1.46672   0.0000000000
C          C       0.88035   0.56382   1.46447   0.0000000000
C          C       0.85847   0.58257   1.46485   0.0000000000
H          H       0.86530   0.53214   1.46387   0.0000000000
H          H       0.82686   0.56507   1.46455   0.0000000000
C          C       0.93624   0.81662   1.46926   0.0000000000
C          C       0.91749   0.77600   1.46850   0.0000000000
H          H       0.96792   0.83325   1.46955   0.0000000000
H          H       0.93499   0.76189   1.46821   0.0000000000
C          C       0.87029   0.81408   1.46928   0.0000000000
C          C       0.85080   0.77342   1.46852   0.0000000000
H          H       0.85338   0.82882   1.46958   0.0000000000
H          H       0.81913   0.75741   1.46825   0.0000000000
C          C       0.94375   0.62977   1.46566   0.0000000000
C          C       0.92259   0.64926   1.46606   0.0000000000
H          H       0.97542   0.64669   1.46595   0.0000000000
H          H       0.93825   0.68093   1.46665   0.0000000000
C          C       0.68599   0.55631   1.46453   0.0000000000
C          C       0.72664   0.57748   1.46489   0.0000000000
H          H       0.67124   0.52464   1.46394   0.0000000000
H          H       0.74265   0.56182   1.46457   0.0000000000
C          C       0.85271   0.70789   1.46726   0.0000000000
C          C       0.91342   0.83693   1.46967   0.0000000000
C          C       0.87347   0.75200   1.46809   0.0000000000
C          C       0.79217   0.64491   1.46612   0.0000000000
C          C       0.66313   0.57658   1.46494   0.0000000000
C          C       0.74806   0.62156   1.46572   0.0000000000
C          C       0.85515   0.64735   1.46610   0.0000000000
C          C       0.92348   0.58664   1.46486   0.0000000000
C          C       0.87850   0.62660   1.46567   0.0000000000
C          C       0.87406   0.68828   1.46686   0.0000000000
C          C       0.81178   0.68588   1.46688   0.0000000000
C          C       0.81419   0.62600   1.46573   0.0000000000
H          H       0.79476   0.70050   1.46718   0.0000000000
H          H       0.79957   0.59436   1.46514   0.0000000000
H          H       0.90570   0.70530   1.46716   0.0000000000
C          C       0.31656   0.38032   1.47958   0.0000000000
C          C       0.27594   0.35846   1.48030   0.0000000000
H          H       0.33318   0.36525   1.48028   0.0000000000
H          H       0.26181   0.32685   1.48153   0.0000000000
C          C       0.11974   0.43634   1.47640   0.0000000000
C          C       0.14160   0.41757   1.47727   0.0000000000
H          H       0.13480   0.46801   1.47517   0.0000000000
H          H       0.17321   0.43505   1.47669   0.0000000000
C          C       0.06372   0.18349   1.48654   0.0000000000
C          C       0.08249   0.22412   1.48495   0.0000000000
H          H       0.03205   0.16688   1.48708   0.0000000000
H          H       0.06500   0.23824   1.48429   0.0000000000
C          C       0.12966   0.18601   1.48673   0.0000000000
C          C       0.14916   0.22666   1.48515   0.0000000000
H          H       0.14656   0.17124   1.48741   0.0000000000
H          H       0.18083   0.24266   1.48463   0.0000000000
C          C       0.05632   0.37040   1.47883   0.0000000000
C          C       0.07747   0.35090   1.47972   0.0000000000
H          H       0.02465   0.35350   1.47938   0.0000000000
H          H       0.06180   0.31923   1.48095   0.0000000000
C          C       0.31405   0.44374   1.47697   0.0000000000
C          C       0.27340   0.42259   1.47765   0.0000000000
H          H       0.32881   0.47540   1.47573   0.0000000000
H          H       0.25740   0.43826   1.47694   0.0000000000
C          C       0.14729   0.29221   1.48244   0.0000000000
C          C       0.08653   0.16316   1.48747   0.0000000000
C          C       0.12652   0.24810   1.48416   0.0000000000
C          C       0.20785   0.35517   1.48013   0.0000000000
C          C       0.33689   0.42345   1.47790   0.0000000000
C          C       0.25196   0.37851   1.47937   0.0000000000
C          C       0.14489   0.35277   1.47995   0.0000000000
C          C       0.07661   0.41353   1.47715   0.0000000000
C          C       0.12155   0.37354   1.47899   0.0000000000
C          C       0.12595   0.31184   1.48154   0.0000000000
C          C       0.18822   0.31421   1.48172   0.0000000000
C          C       0.18585   0.37410   1.47925   0.0000000000
H          H       0.20523   0.29957   1.48240   0.0000000000
H          H       0.20048   0.40574   1.47802   0.0000000000
H          H       0.09431   0.29483   1.48210   0.0000000000
