data_crystal
 
_cell_length_a    17.94010
_cell_length_b    3.53000
_cell_length_c    19.02820
_cell_angle_alpha 90.00000
_cell_angle_beta  114.76570
_cell_angle_gamma 90.00000
 
_symmetry_space_group_name_Hall 'P 1'
_symmetry_space_group_name_H-M  'P 1'
 
loop_
_symmetry_equiv_pos_as_xyz
 'x,y,z' 
 
loop_
_atom_site_label
_atom_site_type_symbol
_atom_site_fract_x
_atom_site_fract_y
_atom_site_fract_z
_atom_site_charge
C          C       0.53070   0.50000   0.60660   0.0000000000
C          C       0.54758   0.50000   0.48290   0.0000000000
C          C       0.40740   0.50000   0.47956   0.0000000000
C          C       0.44427   0.50000   0.56203   0.0000000000
C          C       0.58092   0.50000   0.56545   0.0000000000
C          C       0.46047   0.50000   0.44117   0.0000000000
C          C       0.79350   0.50000   0.07178   0.0000000000
C          C       0.78151   0.50000   0.19971   0.0000000000
C          C       0.92177   0.50000   0.19725   0.0000000000
C          C       0.88028   0.50000   0.11516   0.0000000000
C          C       0.74797   0.50000   0.11769   0.0000000000
C          C       0.86855   0.50000   0.23539   0.0000000000
O          O       0.39862   0.50000   0.59735   0.0000000000
O          O       0.65748   0.50000   0.60337   0.0000000000
O          O       0.42913   0.50000   0.36860   0.0000000000
H          H       0.91539   0.50000   0.08559   0.0000000000
H          H       0.68666   0.50000   0.09018   0.0000000000
H          H       0.89470   0.50000   0.29302   0.0000000000
C          C       0.75441   0.50000   0.98807   0.0000000000
C          C       0.73198   0.50000   0.24333   0.0000000000
C          C       0.01026   0.50000   0.23911   0.0000000000
C          C       0.66737   0.50000   0.94494   0.0000000000
C          C       0.76667   0.50000   0.32596   0.0000000000
C          C       0.06563   0.50000   0.20274   0.0000000000
C          C       0.32007   0.50000   0.44056   0.0000000000
C          C       0.60273   0.50000   0.44656   0.0000000000
C          C       0.56208   0.50000   0.68897   0.0000000000
C          C       0.05039   0.50000   0.32161   0.0000000000
C          C       0.64426   0.50000   0.20826   0.0000000000
C          C       0.79880   0.50000   0.94085   0.0000000000
C          C       0.76028   0.50000   0.85924   0.0000000000
C          C       0.59641   0.50000   0.25116   0.0000000000
C          C       0.13595   0.50000   0.36348   0.0000000000
N          N       0.27291   0.50000   0.36291   0.0000000000
N          N       0.58216   0.50000   0.36926   0.0000000000
N          N       0.64234   0.50000   0.74012   0.0000000000
C          C       0.15196   0.50000   0.24463   0.0000000000
C          C       0.71946   0.50000   0.36911   0.0000000000
C          C       0.62852   0.50000   0.86365   0.0000000000
H          H       0.62798   0.50000   0.97063   0.0000000000
H          H       0.82808   0.50000   0.35887   0.0000000000
H          H       0.04525   0.50000   0.14427   0.0000000000
H          H       0.66367   0.50000   0.48188   0.0000000000
H          H       0.52024   0.50000   0.71202   0.0000000000
H          H       0.01961   0.50000   0.35569   0.0000000000
H          H       0.61143   0.50000   0.14997   0.0000000000
H          H       0.86109   0.50000   0.96393   0.0000000000
C          C       0.67433   0.50000   0.81892   0.0000000000
C          C       0.63300   0.50000   0.33249   0.0000000000
C          C       0.18915   0.50000   0.32606   0.0000000000
H          H       0.79556   0.50000   0.82866   0.0000000000
H          H       0.53371   0.50000   0.22263   0.0000000000
H          H       0.15845   0.50000   0.42226   0.0000000000
H          H       0.18855   0.50000   0.21538   0.0000000000
H          H       0.74964   0.50000   0.42789   0.0000000000
H          H       0.56601   0.50000   0.83790   0.0000000000
H          H       0.28930   0.50000   0.47480   0.0000000000
H          H       0.30208   0.50000   0.33026   0.0000000000
H          H       0.52416   0.50000   0.33626   0.0000000000
H          H       0.68168   0.50000   0.71781   0.0000000000
