data_crystal
 
_cell_length_a    36.80000
_cell_length_b    36.80000
_cell_length_c    7.20000
_cell_angle_alpha 90.00000
_cell_angle_beta  90.00000
_cell_angle_gamma 120.00000
 
_space_group_name_Hall 'P 1'
_space_group_name_H-M_alt  'P 1'
 
loop_
_symmetry_equiv_pos_as_xyz
 'x,y,z' 
 
loop_
_atom_site_label
_atom_site_type_symbol
_atom_site_fract_x
_atom_site_fract_y
_atom_site_fract_z
C          C       0.52615   0.48323   0.02018 
C          C       0.51677   0.04292   0.02018 
C          C       0.95708   0.47385   0.02018 
C          C       0.47385   0.51677   0.47982 
C          C       0.48323   0.95708   0.47982 
C          C       0.04292   0.52615   0.47982 
C          C       0.53949   0.51988   0.42250 
C          C       0.48012   0.01961   0.42250 
C          C       0.98039   0.46051   0.42250 
C          C       0.46051   0.48012   0.07751 
C          C       0.51988   0.98039   0.07751 
C          C       0.01961   0.53949   0.07751 
C          C       0.51327   0.53664   0.40090 
C          C       0.46336   0.97663   0.40090 
C          C       0.02337   0.48673   0.40090 
C          C       0.48673   0.46336   0.09910 
C          C       0.53664   0.02337   0.09910 
C          C       0.97663   0.51327   0.09910 
C          C       0.44562   0.53329   0.45883 
C          C       0.46671   0.91233   0.45883 
C          C       0.08767   0.55438   0.45883 
C          C       0.55438   0.46671   0.04117 
C          C       0.53329   0.08767   0.04117 
C          C       0.91233   0.44562   0.04117 
F          F       0.42589   0.46655   0.18268 
F          F       0.53345   0.95934   0.18268 
F          F       0.04066   0.57411   0.18268 
F          F       0.57411   0.53345   0.31732 
F          F       0.46655   0.04066   0.31732 
F          F       0.95934   0.42589   0.31732 
F          F       0.47827   0.43389   0.22942 
F          F       0.56611   0.04438   0.22942 
F          F       0.95562   0.52173   0.22942 
F          F       0.52173   0.56611   0.27058 
F          F       0.43389   0.95562   0.27058 
F          F       0.04438   0.47827   0.27058 
N          N       0.46004   0.57286   0.44584 
N          N       0.42714   0.88718   0.44584 
N          N       0.11282   0.53996   0.44584 
N          N       0.53996   0.42714   0.05416 
N          N       0.57286   0.11282   0.05416 
N          N       0.88718   0.46004   0.05416 
C          C       0.43523   0.59206   0.42247 
C          C       0.40794   0.84317   0.42247 
C          C       0.15683   0.56477   0.42247 
C          C       0.56477   0.40794   0.07752 
C          C       0.59206   0.15683   0.07752 
C          C       0.84317   0.43523   0.07752 
C          C       0.44848   0.63133   0.49643 
C          C       0.36867   0.81715   0.49643 
C          C       0.18285   0.55152   0.49643 
C          C       0.55152   0.36867   0.00357 
C          C       0.63133   0.18285   0.00357 
C          C       0.81715   0.44848   0.00357 
C          C       0.42438   0.64996   0.47896 
C          C       0.35004   0.77442   0.47896 
C          C       0.22558   0.57562   0.47896 
C          C       0.57562   0.35004   0.02105 
C          C       0.64996   0.22558   0.02105 
C          C       0.77442   0.42438   0.02105 
C          C       0.38555   0.62953   0.39077 
C          C       0.37047   0.75602   0.39077 
C          C       0.24398   0.61445   0.39077 
C          C       0.61445   0.37047   0.10923 
C          C       0.62953   0.24398   0.10923 
C          C       0.75602   0.38555   0.10923 
C          C       0.37266   0.59026   0.31427 
C          C       0.40974   0.78240   0.31427 
C          C       0.21760   0.62734   0.31427 
C          C       0.62734   0.40974   0.18573 
C          C       0.59026   0.21760   0.18573 
C          C       0.78240   0.37266   0.18573 
C          C       0.39747   0.57233   0.32693 
C          C       0.42767   0.82514   0.32693 
C          C       0.17486   0.60253   0.32693 
C          C       0.60253   0.42767   0.17308 
C          C       0.57233   0.17486   0.17308 
C          C       0.82514   0.39747   0.17308 
F          F       0.48103   0.64920   0.11409 
F          F       0.35080   0.83183   0.11409 
F          F       0.16817   0.51897   0.11409 
F          F       0.51897   0.35080   0.38591 
F          F       0.64920   0.16817   0.38591 
F          F       0.83183   0.48103   0.38591 
F          F       0.38666   0.53786   0.22552 
F          F       0.46214   0.84880   0.22552 
F          F       0.15120   0.61334   0.22552 
F          F       0.61334   0.46214   0.27448 
F          F       0.53786   0.15120   0.27448 
F          F       0.84880   0.38666   0.27448 
C          C       0.35875   0.64863   0.38207 
C          C       0.35137   0.71012   0.38207 
C          C       0.28988   0.64125   0.38207 
C          C       0.64125   0.35137   0.11793 
C          C       0.64863   0.28988   0.11793 
C          C       0.71012   0.35875   0.11793 
C          C       0.37616   0.69173   0.38118 
C          C       0.30827   0.68443   0.38118 
C          C       0.31557   0.62384   0.38118 
C          C       0.62384   0.30827   0.11882 
C          C       0.69173   0.31557   0.11882 
C          C       0.68443   0.37616   0.11882 
H          H       0.41243   0.51171   0.46462 
H          H       0.48829   0.90072   0.46462 
H          H       0.09928   0.58757   0.46462 
H          H       0.58757   0.48829   0.03537 
H          H       0.51171   0.09928   0.03537 
H          H       0.90072   0.41243   0.03537 
H          H       0.43567   0.67930   0.04816 
H          H       0.32070   0.75637   0.04816 
H          H       0.24363   0.56433   0.04816 
H          H       0.56433   0.32070   0.45184 
H          H       0.67930   0.24363   0.45184 
H          H       0.75637   0.43567   0.45184 
H          H       0.34436   0.57358   0.23558 
H          H       0.42642   0.77078   0.23558 
H          H       0.22922   0.65564   0.23558 
H          H       0.65564   0.42642   0.26442 
H          H       0.57358   0.22922   0.26442 
H          H       0.77078   0.34436   0.26442 
H          H       0.40925   0.71110   0.38229 
H          H       0.28890   0.69815   0.38229 
H          H       0.30185   0.59075   0.38229 
H          H       0.59075   0.28890   0.11771 
H          H       0.71110   0.30185   0.11771 
H          H       0.69815   0.40925   0.11771 
C          C       0.52615   0.48323   0.52018 
C          C       0.51677   0.04292   0.52018 
C          C       0.95708   0.47385   0.52018 
C          C       0.47385   0.51677   0.97982 
C          C       0.48323   0.95708   0.97982 
C          C       0.04292   0.52615   0.97982 
C          C       0.53949   0.51988   0.92249 
C          C       0.48012   0.01961   0.92249 
C          C       0.98039   0.46051   0.92249 
C          C       0.46051   0.48012   0.57751 
C          C       0.51988   0.98039   0.57751 
C          C       0.01961   0.53949   0.57751 
C          C       0.51327   0.53664   0.90090 
C          C       0.46336   0.97663   0.90090 
C          C       0.02337   0.48673   0.90090 
C          C       0.48673   0.46336   0.59910 
C          C       0.53664   0.02337   0.59910 
C          C       0.97663   0.51327   0.59910 
C          C       0.44562   0.53329   0.95884 
C          C       0.46671   0.91233   0.95884 
C          C       0.08767   0.55438   0.95884 
C          C       0.55438   0.46671   0.54117 
C          C       0.53329   0.08767   0.54117 
C          C       0.91233   0.44562   0.54117 
F          F       0.42589   0.46655   0.68268 
F          F       0.53345   0.95934   0.68268 
F          F       0.04066   0.57411   0.68268 
F          F       0.57411   0.53345   0.81732 
F          F       0.46655   0.04066   0.81732 
F          F       0.95934   0.42589   0.81732 
F          F       0.47827   0.43389   0.72942 
F          F       0.56611   0.04438   0.72942 
F          F       0.95562   0.52173   0.72942 
F          F       0.52173   0.56611   0.77058 
F          F       0.43389   0.95562   0.77058 
F          F       0.04438   0.47827   0.77058 
N          N       0.46004   0.57286   0.94584 
N          N       0.42714   0.88718   0.94584 
N          N       0.11282   0.53996   0.94584 
N          N       0.53996   0.42714   0.55416 
N          N       0.57286   0.11282   0.55416 
N          N       0.88718   0.46004   0.55416 
C          C       0.43523   0.59206   0.92247 
C          C       0.40794   0.84317   0.92247 
C          C       0.15683   0.56477   0.92247 
C          C       0.56477   0.40794   0.57752 
C          C       0.59206   0.15683   0.57752 
C          C       0.84317   0.43523   0.57752 
C          C       0.44848   0.63133   0.99643 
C          C       0.36867   0.81715   0.99643 
C          C       0.18285   0.55152   0.99643 
C          C       0.55152   0.36867   0.50357 
C          C       0.63133   0.18285   0.50357 
C          C       0.81715   0.44848   0.50357 
C          C       0.42438   0.64996   0.97896 
C          C       0.35004   0.77442   0.97896 
C          C       0.22558   0.57562   0.97896 
C          C       0.57562   0.35004   0.52104 
C          C       0.64996   0.22558   0.52104 
C          C       0.77442   0.42438   0.52104 
C          C       0.38555   0.62953   0.89077 
C          C       0.37047   0.75602   0.89077 
C          C       0.24398   0.61445   0.89077 
C          C       0.61445   0.37047   0.60923 
C          C       0.62953   0.24398   0.60923 
C          C       0.75602   0.38555   0.60923 
C          C       0.37266   0.59026   0.81427 
C          C       0.40974   0.78240   0.81427 
C          C       0.21760   0.62734   0.81427 
C          C       0.62734   0.40974   0.68573 
C          C       0.59026   0.21760   0.68573 
C          C       0.78240   0.37266   0.68573 
C          C       0.39747   0.57233   0.82693 
C          C       0.42767   0.82514   0.82693 
C          C       0.17486   0.60253   0.82693 
C          C       0.60253   0.42767   0.67307 
C          C       0.57233   0.17486   0.67307 
C          C       0.82514   0.39747   0.67307 
F          F       0.48103   0.64920   0.61409 
F          F       0.35080   0.83183   0.61409 
F          F       0.16817   0.51897   0.61409 
F          F       0.51897   0.35080   0.88591 
F          F       0.64920   0.16817   0.88591 
F          F       0.83183   0.48103   0.88591 
F          F       0.38666   0.53786   0.72552 
F          F       0.46214   0.84880   0.72552 
F          F       0.15120   0.61334   0.72552 
F          F       0.61334   0.46214   0.77448 
F          F       0.53786   0.15120   0.77448 
F          F       0.84880   0.38666   0.77448 
C          C       0.35875   0.64863   0.88207 
C          C       0.35137   0.71012   0.88207 
C          C       0.28988   0.64125   0.88207 
C          C       0.64125   0.35137   0.61793 
C          C       0.64863   0.28988   0.61793 
C          C       0.71012   0.35875   0.61793 
C          C       0.37616   0.69173   0.88118 
C          C       0.30827   0.68443   0.88118 
C          C       0.31557   0.62384   0.88118 
C          C       0.62384   0.30827   0.61882 
C          C       0.69173   0.31557   0.61882 
C          C       0.68443   0.37616   0.61882 
H          H       0.41243   0.51171   0.96462 
H          H       0.48829   0.90072   0.96462 
H          H       0.09928   0.58757   0.96462 
H          H       0.58757   0.48829   0.53538 
H          H       0.51171   0.09928   0.53538 
H          H       0.90072   0.41243   0.53538 
H          H       0.43567   0.67930   0.54816 
H          H       0.32070   0.75637   0.54816 
H          H       0.24363   0.56433   0.54816 
H          H       0.56433   0.32070   0.95184 
H          H       0.67930   0.24363   0.95184 
H          H       0.75637   0.43567   0.95184 
H          H       0.34436   0.57358   0.73558 
H          H       0.42642   0.77078   0.73558 
H          H       0.22922   0.65564   0.73558 
H          H       0.65564   0.42642   0.76442 
H          H       0.57358   0.22922   0.76442 
H          H       0.77078   0.34436   0.76442 
H          H       0.40925   0.71110   0.88230 
H          H       0.28890   0.69815   0.88230 
H          H       0.30185   0.59075   0.88230 
H          H       0.59075   0.28890   0.61770 
H          H       0.71110   0.30185   0.61770 
H          H       0.69815   0.40925   0.61770 
