data_crystal
 
_cell_length_a    29.71820
_cell_length_b    29.71820
_cell_length_c    6.80000
_cell_angle_alpha 90.00000
_cell_angle_beta  90.00000
_cell_angle_gamma 120.00000
 
_symmetry_space_group_name_Hall 'P 1'
_symmetry_space_group_name_H-M  'P 1'
 
loop_
_symmetry_equiv_pos_as_xyz
 'x,y,z' 
 
loop_
_atom_site_label
_atom_site_type_symbol
_atom_site_fract_x
_atom_site_fract_y
_atom_site_fract_z
C          C       0.71776   0.37477   0.04969 
C          C       0.62523   0.34299   0.04969 
C          C       0.65701   0.28224   0.04969 
C          C       0.28224   0.62523   0.04969 
C          C       0.37477   0.65701   0.04969 
C          C       0.34299   0.71776   0.04969 
C          C       0.70784   0.32354   0.04526 
C          C       0.67646   0.38430   0.04526 
C          C       0.61570   0.29216   0.04526 
C          C       0.29216   0.67646   0.04526 
C          C       0.32354   0.61570   0.04526 
C          C       0.38430   0.70784   0.04526 
C          C       0.76959   0.41751   0.09865 
C          C       0.58249   0.35208   0.09865 
C          C       0.64792   0.23041   0.09865 
C          C       0.23041   0.58249   0.09865 
C          C       0.41751   0.64792   0.09865 
C          C       0.35208   0.76959   0.09865 
N          N       0.80530   0.40728   0.14877 
N          N       0.59272   0.39802   0.14877 
N          N       0.60198   0.19470   0.14877 
N          N       0.19470   0.59272   0.14877 
N          N       0.40728   0.60198   0.14877 
N          N       0.39802   0.80530   0.14877 
N          N       0.85184   0.44423   0.23528 
N          N       0.55577   0.40761   0.23528 
N          N       0.59239   0.14816   0.23528 
N          N       0.14816   0.55577   0.23528 
N          N       0.44423   0.59239   0.23528 
N          N       0.40761   0.85184   0.23528 
C          C       0.88907   0.42870   0.29890 
C          C       0.57130   0.46037   0.29890 
C          C       0.53963   0.11093   0.29890 
C          C       0.11093   0.57130   0.29890 
C          C       0.42870   0.53963   0.29890 
C          C       0.46037   0.88907   0.29890 
C          C       0.94551   0.46656   0.24768 
C          C       0.53344   0.47895   0.24768 
C          C       0.52105   0.05449   0.24768 
C          C       0.05449   0.53344   0.24768 
C          C       0.46656   0.52105   0.24768 
C          C       0.47895   0.94551   0.24768 
C          C       0.97941   0.44677   0.23832 
C          C       0.55323   0.53264   0.23832 
C          C       0.46736   0.02059   0.23832 
C          C       0.02059   0.55323   0.23832 
C          C       0.44677   0.46736   0.23832 
C          C       0.53264   0.97941   0.23832 
C          C       0.52085   0.55413   0.24744 
C          C       0.44587   0.96672   0.24744 
C          C       0.03328   0.47915   0.24744 
C          C       0.47915   0.44587   0.24744 
C          C       0.55413   0.03328   0.24744 
C          C       0.96672   0.52085   0.24744 
O          O       0.37790   0.50438   0.23584 
O          O       0.49562   0.87352   0.23584 
O          O       0.12648   0.62210   0.23584 
O          O       0.62210   0.49562   0.23584 
O          O       0.50438   0.12648   0.23584 
O          O       0.87352   0.37790   0.23584 
O          O       0.54218   0.60814   0.24460 
O          O       0.39186   0.93404   0.24460 
O          O       0.06596   0.45782   0.24460 
O          O       0.45782   0.39186   0.24460 
O          O       0.60814   0.06596   0.24460 
O          O       0.93404   0.54218   0.24460 
C          C       0.58402   0.63912   0.37495 
C          C       0.36088   0.94490   0.37495 
C          C       0.05510   0.41598   0.37495 
C          C       0.41598   0.36088   0.37495 
C          C       0.63912   0.05510   0.37495 
C          C       0.94490   0.58402   0.37495 
C          C       0.63141   0.68675   0.28105 
C          C       0.31325   0.94466   0.28105 
C          C       0.05534   0.36859   0.28105 
C          C       0.36859   0.31325   0.28105 
C          C       0.68675   0.05534   0.28105 
C          C       0.94466   0.63141   0.28105 
C          C       0.62114   0.73201   0.23898 
C          C       0.26799   0.88913   0.23898 
C          C       0.11087   0.37886   0.23898 
C          C       0.37886   0.26799   0.23898 
C          C       0.73201   0.11087   0.23898 
C          C       0.88913   0.62114   0.23898 
H          H       0.73949   0.31564   0.05656 
H          H       0.68436   0.42385   0.05656 
H          H       0.57615   0.26051   0.05656 
H          H       0.26051   0.68436   0.05656 
H          H       0.31564   0.57615   0.05656 
H          H       0.42385   0.73949   0.05656 
H          H       0.77587   0.45636   0.11684 
H          H       0.54364   0.31951   0.11684 
H          H       0.68049   0.22413   0.11684 
H          H       0.22413   0.54364   0.11684 
H          H       0.45636   0.68049   0.11684 
H          H       0.31951   0.77587   0.11684 
H          H       0.85242   0.47602   0.30191 
H          H       0.52398   0.37640   0.30191 
H          H       0.62360   0.14758   0.30191 
H          H       0.14758   0.52398   0.30191 
H          H       0.47602   0.62360   0.30191 
H          H       0.37640   0.85242   0.30191 
H          H       0.96390   0.40537   0.23220 
H          H       0.59463   0.55853   0.23220 
H          H       0.44147   0.03610   0.23220 
H          H       0.03610   0.59463   0.23220 
H          H       0.40537   0.44147   0.23220 
H          H       0.55853   0.96390   0.23220 
H          H       0.59677   0.61453   0.45066 
H          H       0.38547   0.98224   0.45066 
H          H       0.01776   0.40323   0.45066 
H          H       0.40323   0.38547   0.45066 
H          H       0.61453   0.01776   0.45066 
H          H       0.98224   0.59677   0.45066 
H          H       0.56732   0.65562   0.47535 
H          H       0.34438   0.91170   0.47535 
H          H       0.08830   0.43268   0.47535 
H          H       0.43268   0.34438   0.47535 
H          H       0.65562   0.08830   0.47535 
H          H       0.91170   0.56732   0.47535 
H          H       0.63637   0.67020   0.15440 
H          H       0.32980   0.96617   0.15440 
H          H       0.03383   0.36363   0.15440 
H          H       0.36363   0.32980   0.15440 
H          H       0.67020   0.03383   0.15440 
H          H       0.96617   0.63637   0.15440 
C          C       0.68618   0.70649   0.36745 
C          C       0.29351   0.97969   0.36745 
C          C       0.02031   0.31382   0.36745 
C          C       0.31382   0.29351   0.36745 
C          C       0.70649   0.02031   0.36745 
C          C       0.97969   0.68618   0.36745 
H          H       0.88881   0.42860   0.45327 
H          H       0.57140   0.46021   0.45327 
H          H       0.53979   0.11119   0.45327 
H          H       0.11119   0.57140   0.45327 
H          H       0.42860   0.53979   0.45327 
H          H       0.46021   0.88881   0.45327 
H          H       0.35381   0.51009   0.31909 
H          H       0.48991   0.84372   0.31909 
H          H       0.15628   0.64619   0.31909 
H          H       0.64619   0.48991   0.31909 
H          H       0.51009   0.15628   0.31909 
H          H       0.84372   0.35381   0.31909 
H          H       0.58276   0.72427   0.29318 
H          H       0.27573   0.85849   0.29318 
H          H       0.14151   0.41724   0.29318 
H          H       0.41724   0.27573   0.29318 
H          H       0.72427   0.14151   0.29318 
H          H       0.85849   0.58276   0.29318 
H          H       0.62077   0.73916   0.08568 
H          H       0.26084   0.88161   0.08568 
H          H       0.11839   0.37923   0.08568 
H          H       0.37923   0.26084   0.08568 
H          H       0.73916   0.11839   0.08568 
H          H       0.88161   0.62077   0.08568 
H          H       0.65202   0.76961   0.29797 
H          H       0.23039   0.88241   0.29797 
H          H       0.11759   0.34798   0.29797 
H          H       0.34798   0.23039   0.29797 
H          H       0.76961   0.11759   0.29797 
H          H       0.88241   0.65202   0.29797 
H          H       0.71696   0.72369   0.25483 
H          H       0.27631   0.99327   0.25483 
H          H       0.00673   0.28304   0.25483 
H          H       0.28304   0.27631   0.25483 
H          H       0.72369   0.00673   0.25483 
H          H       0.99327   0.71696   0.25483 
H          H       0.69006   0.67440   0.43244 
H          H       0.32560   0.01566   0.43244 
H          H       0.98434   0.30994   0.43244 
H          H       0.30994   0.32560   0.43244 
H          H       0.67440   0.98434   0.43244 
H          H       0.01566   0.69006   0.43244 
H          H       0.69648   0.73854   0.47178 
H          H       0.26146   0.95794   0.47178 
H          H       0.04206   0.30352   0.47178 
H          H       0.30352   0.26146   0.47178 
H          H       0.73854   0.04206   0.47178 
H          H       0.95794   0.69648   0.47178 
C          C       0.71776   0.37477   0.54969 
C          C       0.62523   0.34299   0.54969 
C          C       0.65701   0.28224   0.54969 
C          C       0.28224   0.62523   0.54969 
C          C       0.37477   0.65701   0.54969 
C          C       0.34299   0.71776   0.54969 
C          C       0.70784   0.32354   0.54526 
C          C       0.67646   0.38430   0.54526 
C          C       0.61570   0.29216   0.54526 
C          C       0.29216   0.67646   0.54526 
C          C       0.32354   0.61570   0.54526 
C          C       0.38430   0.70784   0.54526 
C          C       0.76959   0.41751   0.59865 
C          C       0.58249   0.35208   0.59865 
C          C       0.64792   0.23041   0.59865 
C          C       0.23041   0.58249   0.59865 
C          C       0.41751   0.64792   0.59865 
C          C       0.35208   0.76959   0.59865 
N          N       0.80530   0.40728   0.64877 
N          N       0.59272   0.39802   0.64877 
N          N       0.60198   0.19470   0.64877 
N          N       0.19470   0.59272   0.64877 
N          N       0.40728   0.60198   0.64877 
N          N       0.39802   0.80530   0.64877 
N          N       0.85184   0.44423   0.73528 
N          N       0.55577   0.40761   0.73528 
N          N       0.59239   0.14816   0.73528 
N          N       0.14816   0.55577   0.73528 
N          N       0.44423   0.59239   0.73528 
N          N       0.40761   0.85184   0.73528 
C          C       0.88907   0.42870   0.79890 
C          C       0.57130   0.46037   0.79890 
C          C       0.53963   0.11093   0.79890 
C          C       0.11093   0.57130   0.79890 
C          C       0.42870   0.53963   0.79890 
C          C       0.46037   0.88907   0.79890 
C          C       0.94551   0.46656   0.74768 
C          C       0.53344   0.47895   0.74768 
C          C       0.52105   0.05449   0.74768 
C          C       0.05449   0.53344   0.74768 
C          C       0.46656   0.52105   0.74768 
C          C       0.47895   0.94551   0.74768 
C          C       0.97941   0.44677   0.73832 
C          C       0.55323   0.53264   0.73832 
C          C       0.46736   0.02059   0.73832 
C          C       0.02059   0.55323   0.73832 
C          C       0.44677   0.46736   0.73832 
C          C       0.53264   0.97941   0.73832 
C          C       0.52085   0.55413   0.74744 
C          C       0.44587   0.96672   0.74744 
C          C       0.03328   0.47915   0.74744 
C          C       0.47915   0.44587   0.74744 
C          C       0.55413   0.03328   0.74744 
C          C       0.96672   0.52085   0.74744 
O          O       0.37790   0.50438   0.73584 
O          O       0.49562   0.87352   0.73584 
O          O       0.12648   0.62210   0.73584 
O          O       0.62210   0.49562   0.73584 
O          O       0.50438   0.12648   0.73584 
O          O       0.87352   0.37790   0.73584 
O          O       0.54218   0.60814   0.74461 
O          O       0.39186   0.93404   0.74461 
O          O       0.06596   0.45782   0.74461 
O          O       0.45782   0.39186   0.74461 
O          O       0.60814   0.06596   0.74461 
O          O       0.93404   0.54218   0.74461 
C          C       0.58402   0.63912   0.87495 
C          C       0.36088   0.94490   0.87495 
C          C       0.05510   0.41598   0.87495 
C          C       0.41598   0.36088   0.87495 
C          C       0.63912   0.05510   0.87495 
C          C       0.94490   0.58402   0.87495 
C          C       0.63141   0.68675   0.78105 
C          C       0.31325   0.94466   0.78105 
C          C       0.05534   0.36859   0.78105 
C          C       0.36859   0.31325   0.78105 
C          C       0.68675   0.05534   0.78105 
C          C       0.94466   0.63141   0.78105 
C          C       0.62114   0.73201   0.73898 
C          C       0.26799   0.88913   0.73898 
C          C       0.11087   0.37886   0.73898 
C          C       0.37886   0.26799   0.73898 
C          C       0.73201   0.11087   0.73898 
C          C       0.88913   0.62114   0.73898 
H          H       0.73949   0.31564   0.55656 
H          H       0.68436   0.42385   0.55656 
H          H       0.57615   0.26051   0.55656 
H          H       0.26051   0.68436   0.55656 
H          H       0.31564   0.57615   0.55656 
H          H       0.42385   0.73949   0.55656 
H          H       0.77587   0.45636   0.61684 
H          H       0.54364   0.31951   0.61684 
H          H       0.68049   0.22413   0.61684 
H          H       0.22413   0.54364   0.61684 
H          H       0.45636   0.68049   0.61684 
H          H       0.31951   0.77587   0.61684 
H          H       0.85242   0.47602   0.80191 
H          H       0.52398   0.37640   0.80191 
H          H       0.62360   0.14758   0.80191 
H          H       0.14758   0.52398   0.80191 
H          H       0.47602   0.62360   0.80191 
H          H       0.37640   0.85242   0.80191 
H          H       0.96390   0.40537   0.73220 
H          H       0.59463   0.55853   0.73220 
H          H       0.44147   0.03610   0.73220 
H          H       0.03610   0.59463   0.73220 
H          H       0.40537   0.44147   0.73220 
H          H       0.55853   0.96390   0.73220 
H          H       0.59677   0.61453   0.95066 
H          H       0.38547   0.98224   0.95066 
H          H       0.01776   0.40323   0.95066 
H          H       0.40323   0.38547   0.95066 
H          H       0.61453   0.01776   0.95066 
H          H       0.98224   0.59677   0.95066 
H          H       0.56732   0.65562   0.97535 
H          H       0.34438   0.91170   0.97535 
H          H       0.08830   0.43268   0.97535 
H          H       0.43268   0.34438   0.97535 
H          H       0.65562   0.08830   0.97535 
H          H       0.91170   0.56732   0.97535 
H          H       0.63637   0.67020   0.65440 
H          H       0.32980   0.96617   0.65440 
H          H       0.03383   0.36363   0.65440 
H          H       0.36363   0.32980   0.65440 
H          H       0.67020   0.03383   0.65440 
H          H       0.96617   0.63637   0.65440 
C          C       0.68618   0.70649   0.86745 
C          C       0.29351   0.97969   0.86745 
C          C       0.02031   0.31382   0.86745 
C          C       0.31382   0.29351   0.86745 
C          C       0.70649   0.02031   0.86745 
C          C       0.97969   0.68618   0.86745 
H          H       0.88881   0.42860   0.95327 
H          H       0.57140   0.46021   0.95327 
H          H       0.53979   0.11119   0.95327 
H          H       0.11119   0.57140   0.95327 
H          H       0.42860   0.53979   0.95327 
H          H       0.46021   0.88881   0.95327 
H          H       0.35381   0.51009   0.81908 
H          H       0.48991   0.84372   0.81908 
H          H       0.15628   0.64619   0.81908 
H          H       0.64619   0.48991   0.81908 
H          H       0.51009   0.15628   0.81908 
H          H       0.84372   0.35381   0.81908 
H          H       0.58276   0.72427   0.79317 
H          H       0.27573   0.85849   0.79317 
H          H       0.14151   0.41724   0.79317 
H          H       0.41724   0.27573   0.79317 
H          H       0.72427   0.14151   0.79317 
H          H       0.85849   0.58276   0.79317 
H          H       0.62077   0.73916   0.58568 
H          H       0.26084   0.88161   0.58568 
H          H       0.11839   0.37923   0.58568 
H          H       0.37923   0.26084   0.58568 
H          H       0.73916   0.11839   0.58568 
H          H       0.88161   0.62077   0.58568 
H          H       0.65202   0.76961   0.79798 
H          H       0.23039   0.88241   0.79798 
H          H       0.11759   0.34798   0.79798 
H          H       0.34798   0.23039   0.79798 
H          H       0.76961   0.11759   0.79798 
H          H       0.88241   0.65202   0.79798 
H          H       0.71696   0.72369   0.75484 
H          H       0.27631   0.99327   0.75484 
H          H       0.00673   0.28304   0.75484 
H          H       0.28304   0.27631   0.75484 
H          H       0.72369   0.00673   0.75484 
H          H       0.99327   0.71696   0.75484 
H          H       0.69006   0.67440   0.93244 
H          H       0.32560   0.01566   0.93244 
H          H       0.98434   0.30994   0.93244 
H          H       0.30994   0.32560   0.93244 
H          H       0.67440   0.98434   0.93244 
H          H       0.01566   0.69006   0.93244 
H          H       0.69648   0.73854   0.97178 
H          H       0.26146   0.95794   0.97178 
H          H       0.04206   0.30352   0.97178 
H          H       0.30352   0.26146   0.97178 
H          H       0.73854   0.04206   0.97178 
H          H       0.95794   0.69648   0.97178 
