data_crystal
 
_cell_length_a    21.85080
_cell_length_b    21.85080
_cell_length_c    6.84620
_cell_angle_alpha 90.00000
_cell_angle_beta  90.00000
_cell_angle_gamma 90.00000
 
_space_group_name_Hall 'P 1'
_space_group_name_H-M_alt  'P 1'
 
loop_
_symmetry_equiv_pos_as_xyz
 'x,y,z' 
 
loop_
_atom_site_label
_atom_site_type_symbol
_atom_site_fract_x
_atom_site_fract_y
_atom_site_fract_z
H          H       0.33076   0.82868   0.25000 
H          H       0.66924   0.17132   0.25000 
H          H       0.17132   0.33076   0.25000 
H          H       0.82868   0.66924   0.25000 
H          H       0.66924   0.82868   0.25000 
H          H       0.33076   0.17132   0.25000 
H          H       0.82868   0.33076   0.25000 
H          H       0.17132   0.66924   0.25000 
C          C       0.34686   0.60920   0.25000 
C          C       0.65314   0.39080   0.25000 
C          C       0.39080   0.34686   0.25000 
C          C       0.60920   0.65314   0.25000 
C          C       0.65314   0.60920   0.25000 
C          C       0.34686   0.39080   0.25000 
C          C       0.60920   0.34686   0.25000 
C          C       0.39080   0.65314   0.25000 
C          C       0.37698   0.55393   0.25000 
C          C       0.62302   0.44607   0.25000 
C          C       0.44607   0.37698   0.25000 
C          C       0.55393   0.62302   0.25000 
C          C       0.62302   0.55393   0.25000 
C          C       0.37698   0.44607   0.25000 
C          C       0.55393   0.37698   0.25000 
C          C       0.44607   0.62302   0.25000 
C          C       0.26818   0.68585   0.25000 
C          C       0.73182   0.31415   0.25000 
C          C       0.31415   0.26818   0.25000 
C          C       0.68585   0.73182   0.25000 
C          C       0.73182   0.68585   0.25000 
C          C       0.26818   0.31415   0.25000 
C          C       0.68585   0.26818   0.25000 
C          C       0.31415   0.73182   0.25000 
C          C       0.28472   0.62348   0.25000 
C          C       0.71528   0.37652   0.25000 
C          C       0.37652   0.28472   0.25000 
C          C       0.62348   0.71528   0.25000 
C          C       0.71528   0.62348   0.25000 
C          C       0.28472   0.37652   0.25000 
C          C       0.62348   0.28472   0.25000 
C          C       0.37652   0.71528   0.25000 
C          C       0.88953   0.84528   0.25000 
C          C       0.11047   0.15472   0.25000 
C          C       0.15472   0.88953   0.25000 
C          C       0.84528   0.11047   0.25000 
C          C       0.11047   0.84528   0.25000 
C          C       0.88953   0.15472   0.25000 
C          C       0.84528   0.88953   0.25000 
C          C       0.15472   0.11047   0.25000 
C          C       0.94504   0.87531   0.25000 
C          C       0.05496   0.12469   0.25000 
C          C       0.12469   0.94504   0.25000 
C          C       0.87531   0.05496   0.25000 
C          C       0.05496   0.87531   0.25000 
C          C       0.94504   0.12469   0.25000 
C          C       0.87531   0.94504   0.25000 
C          C       0.12469   0.05496   0.25000 
C          C       0.81262   0.76657   0.25000 
C          C       0.18738   0.23343   0.25000 
C          C       0.23343   0.81262   0.25000 
C          C       0.76657   0.18738   0.25000 
C          C       0.18738   0.76657   0.25000 
C          C       0.81262   0.23343   0.25000 
C          C       0.76657   0.81262   0.25000 
C          C       0.23343   0.18738   0.25000 
C          C       0.87507   0.78315   0.25000 
C          C       0.12493   0.21685   0.25000 
C          C       0.21685   0.87507   0.25000 
C          C       0.78315   0.12493   0.25000 
C          C       0.12493   0.78315   0.25000 
C          C       0.87507   0.21685   0.25000 
C          C       0.78315   0.87507   0.25000 
C          C       0.21685   0.12493   0.25000 
N          N       0.20493   0.70326   0.25000 
N          N       0.79507   0.29674   0.25000 
N          N       0.29674   0.20493   0.25000 
N          N       0.70326   0.79507   0.25000 
N          N       0.79507   0.70326   0.25000 
N          N       0.20493   0.29674   0.25000 
N          N       0.70326   0.20493   0.25000 
N          N       0.29674   0.79507   0.25000 
H          H       0.74776   0.58970   0.25000 
H          H       0.25224   0.41030   0.25000 
H          H       0.41030   0.74776   0.25000 
H          H       0.58970   0.25224   0.25000 
H          H       0.25224   0.58970   0.25000 
H          H       0.74776   0.41030   0.25000 
H          H       0.58970   0.74776   0.25000 
H          H       0.41030   0.25224   0.25000 
F          F       0.08267   0.25750   0.25000 
F          F       0.91733   0.74250   0.25000 
F          F       0.74250   0.08267   0.25000 
F          F       0.25750   0.91733   0.25000 
F          F       0.91733   0.25750   0.25000 
F          F       0.08267   0.74250   0.25000 
F          F       0.25750   0.08267   0.25000 
F          F       0.74250   0.91733   0.25000 
N          N       0.34804   0.50000   0.25000 
N          N       0.65196   0.50000   0.25000 
N          N       0.50000   0.34804   0.25000 
N          N       0.50000   0.65196   0.25000 
N          N       0.00000   0.84698   0.25000 
N          N       0.00000   0.15302   0.25000 
N          N       0.15302   0.00000   0.25000 
N          N       0.84698   0.00000   0.25000 
N          N       0.06328   0.93672   0.25000 
N          N       0.93672   0.06328   0.25000 
N          N       0.06328   0.06328   0.25000 
N          N       0.93672   0.93672   0.25000 
N          N       0.43874   0.56126   0.25000 
N          N       0.56126   0.43874   0.25000 
N          N       0.43874   0.43874   0.25000 
N          N       0.56126   0.56126   0.25000 
Cu         Cu      0.00000   0.00000   0.25000 
Ni         Ni      0.50000   0.50000   0.25000 
H          H       0.33076   0.82868   0.75000 
H          H       0.66924   0.17132   0.75000 
H          H       0.17132   0.33076   0.75000 
H          H       0.82868   0.66924   0.75000 
H          H       0.66924   0.82868   0.75000 
H          H       0.33076   0.17132   0.75000 
H          H       0.82868   0.33076   0.75000 
H          H       0.17132   0.66924   0.75000 
C          C       0.34686   0.60920   0.75000 
C          C       0.65314   0.39080   0.75000 
C          C       0.39080   0.34686   0.75000 
C          C       0.60920   0.65314   0.75000 
C          C       0.65314   0.60920   0.75000 
C          C       0.34686   0.39080   0.75000 
C          C       0.60920   0.34686   0.75000 
C          C       0.39080   0.65314   0.75000 
C          C       0.37698   0.55393   0.75000 
C          C       0.62302   0.44607   0.75000 
C          C       0.44607   0.37698   0.75000 
C          C       0.55393   0.62302   0.75000 
C          C       0.62302   0.55393   0.75000 
C          C       0.37698   0.44607   0.75000 
C          C       0.55393   0.37698   0.75000 
C          C       0.44607   0.62302   0.75000 
C          C       0.26818   0.68585   0.75000 
C          C       0.73182   0.31415   0.75000 
C          C       0.31415   0.26818   0.75000 
C          C       0.68585   0.73182   0.75000 
C          C       0.73182   0.68585   0.75000 
C          C       0.26818   0.31415   0.75000 
C          C       0.68585   0.26818   0.75000 
C          C       0.31415   0.73182   0.75000 
C          C       0.28472   0.62348   0.75000 
C          C       0.71528   0.37652   0.75000 
C          C       0.37652   0.28472   0.75000 
C          C       0.62348   0.71528   0.75000 
C          C       0.71528   0.62348   0.75000 
C          C       0.28472   0.37652   0.75000 
C          C       0.62348   0.28472   0.75000 
C          C       0.37652   0.71528   0.75000 
C          C       0.88953   0.84528   0.75000 
C          C       0.11047   0.15472   0.75000 
C          C       0.15472   0.88953   0.75000 
C          C       0.84528   0.11047   0.75000 
C          C       0.11047   0.84528   0.75000 
C          C       0.88953   0.15472   0.75000 
C          C       0.84528   0.88953   0.75000 
C          C       0.15472   0.11047   0.75000 
C          C       0.94504   0.87531   0.75000 
C          C       0.05496   0.12469   0.75000 
C          C       0.12469   0.94504   0.75000 
C          C       0.87531   0.05496   0.75000 
C          C       0.05496   0.87531   0.75000 
C          C       0.94504   0.12469   0.75000 
C          C       0.87531   0.94504   0.75000 
C          C       0.12469   0.05496   0.75000 
C          C       0.81262   0.76657   0.75000 
C          C       0.18738   0.23343   0.75000 
C          C       0.23343   0.81262   0.75000 
C          C       0.76657   0.18738   0.75000 
C          C       0.18738   0.76657   0.75000 
C          C       0.81262   0.23343   0.75000 
C          C       0.76657   0.81262   0.75000 
C          C       0.23343   0.18738   0.75000 
C          C       0.87507   0.78315   0.75000 
C          C       0.12493   0.21685   0.75000 
C          C       0.21685   0.87507   0.75000 
C          C       0.78315   0.12493   0.75000 
C          C       0.12493   0.78315   0.75000 
C          C       0.87507   0.21685   0.75000 
C          C       0.78315   0.87507   0.75000 
C          C       0.21685   0.12493   0.75000 
N          N       0.20493   0.70326   0.75000 
N          N       0.79507   0.29674   0.75000 
N          N       0.29674   0.20493   0.75000 
N          N       0.70326   0.79507   0.75000 
N          N       0.79507   0.70326   0.75000 
N          N       0.20493   0.29674   0.75000 
N          N       0.70326   0.20493   0.75000 
N          N       0.29674   0.79507   0.75000 
H          H       0.74776   0.58970   0.75000 
H          H       0.25224   0.41030   0.75000 
H          H       0.41030   0.74776   0.75000 
H          H       0.58970   0.25224   0.75000 
H          H       0.25224   0.58970   0.75000 
H          H       0.74776   0.41030   0.75000 
H          H       0.58970   0.74776   0.75000 
H          H       0.41030   0.25224   0.75000 
F          F       0.08267   0.25750   0.75000 
F          F       0.91733   0.74250   0.75000 
F          F       0.74250   0.08267   0.75000 
F          F       0.25750   0.91733   0.75000 
F          F       0.91733   0.25750   0.75000 
F          F       0.08267   0.74250   0.75000 
F          F       0.25750   0.08267   0.75000 
F          F       0.74250   0.91733   0.75000 
N          N       0.34804   0.50000   0.75000 
N          N       0.65196   0.50000   0.75000 
N          N       0.50000   0.34804   0.75000 
N          N       0.50000   0.65196   0.75000 
N          N       0.00000   0.84698   0.75000 
N          N       0.00000   0.15302   0.75000 
N          N       0.15302   0.00000   0.75000 
N          N       0.84698   0.00000   0.75000 
N          N       0.06328   0.93672   0.75000 
N          N       0.93672   0.06328   0.75000 
N          N       0.06328   0.06328   0.75000 
N          N       0.93672   0.93672   0.75000 
N          N       0.43874   0.56126   0.75000 
N          N       0.56126   0.43874   0.75000 
N          N       0.43874   0.43874   0.75000 
N          N       0.56126   0.56126   0.75000 
Cu         Cu      0.00000   0.00000   0.75000 
Ni         Ni      0.50000   0.50000   0.75000 
