data_crystal
 
_cell_length_a    34.43820
_cell_length_b    25.02030
_cell_length_c    7.07920
_cell_angle_alpha 90.00000
_cell_angle_beta  90.03580
_cell_angle_gamma 90.00000
 
_space_group_name_Hall 'P 1'
_space_group_name_H-M_alt  'P 1'
 
loop_
_symmetry_equiv_pos_as_xyz
 'x,y,z' 
 
loop_
_atom_site_label
_atom_site_type_symbol
_atom_site_fract_x
_atom_site_fract_y
_atom_site_fract_z
C          C       0.67375   0.47232   0.07356 
C          C       0.32625   0.47232   0.42644 
C          C       0.32625   0.52768   0.42644 
C          C       0.67375   0.52768   0.07356 
C          C       0.64011   0.55493   0.12337 
C          C       0.35989   0.55493   0.37663 
C          C       0.35989   0.44507   0.37663 
C          C       0.64011   0.44507   0.12337 
C          C       0.60573   0.52824   0.17705 
C          C       0.39427   0.52824   0.32295 
C          C       0.39427   0.47176   0.32295 
C          C       0.60573   0.47176   0.17705 
C          C       0.57134   0.55685   0.22416 
C          C       0.42866   0.55685   0.27584 
C          C       0.42866   0.44315   0.27584 
C          C       0.57134   0.44315   0.22416 
C          C       0.53566   0.52841   0.23694 
C          C       0.46434   0.52841   0.26306 
C          C       0.46434   0.47159   0.26306 
C          C       0.53566   0.47159   0.23694 
C          C       0.53589   0.35896   0.27327 
C          C       0.46411   0.35896   0.22673 
C          C       0.46411   0.64104   0.22673 
C          C       0.53589   0.64104   0.27327 
C          C       0.57128   0.38720   0.26003 
C          C       0.42872   0.38720   0.23997 
C          C       0.42872   0.61280   0.23997 
C          C       0.57128   0.61280   0.26003 
C          C       0.60609   0.64111   0.28992 
C          C       0.39391   0.64111   0.21008 
C          C       0.39391   0.35889   0.21008 
C          C       0.60609   0.35889   0.28992 
C          C       0.57207   0.72325   0.34286 
C          C       0.42793   0.72325   0.15714 
C          C       0.42793   0.27675   0.15714 
C          C       0.57207   0.27675   0.34286 
C          C       0.53724   0.69607   0.31688 
C          C       0.46276   0.69607   0.18311 
C          C       0.46276   0.30393   0.18311 
C          C       0.53724   0.30393   0.31688 
C          C       0.39317   0.30436   0.17095 
C          C       0.60683   0.30436   0.32905 
C          C       0.60683   0.69564   0.32905 
C          C       0.39317   0.69564   0.17095 
C          C       0.64366   0.27568   0.34936 
C          C       0.35634   0.27568   0.15064 
C          C       0.35634   0.72432   0.15064 
C          C       0.64366   0.72432   0.34936 
N          N       0.67652   0.30092   0.34479 
N          N       0.32348   0.30092   0.15521 
N          N       0.32348   0.69908   0.15521 
N          N       0.67652   0.69908   0.34479 
C          C       0.71337   0.27469   0.35532 
C          C       0.28663   0.27469   0.14468 
C          C       0.28663   0.72531   0.14468 
C          C       0.71337   0.72531   0.35532 
C          C       0.25288   0.30571   0.14406 
C          C       0.74712   0.30571   0.35594 
C          C       0.74712   0.69429   0.35594 
C          C       0.25288   0.69429   0.14406 
C          C       0.21641   0.28127   0.14388 
C          C       0.78359   0.28127   0.35612 
C          C       0.78359   0.71873   0.35612 
C          C       0.21641   0.71873   0.14388 
C          C       0.17377   0.97232   0.42697 
C          C       0.82623   0.97232   0.07303 
C          C       0.82623   0.02768   0.07303 
C          C       0.17377   0.02768   0.42697 
C          C       0.14013   0.05493   0.37704 
C          C       0.85987   0.05493   0.12297 
C          C       0.85987   0.94507   0.12297 
C          C       0.14013   0.94507   0.37704 
C          C       0.10574   0.02824   0.32322 
C          C       0.89426   0.02824   0.17677 
C          C       0.89426   0.97176   0.17677 
C          C       0.10574   0.97176   0.32322 
C          C       0.07134   0.05685   0.27601 
C          C       0.92866   0.05685   0.22399 
C          C       0.92866   0.94315   0.22399 
C          C       0.07134   0.94315   0.27601 
C          C       0.03566   0.02841   0.26315 
C          C       0.96434   0.02841   0.23685 
C          C       0.96434   0.97159   0.23685 
C          C       0.03566   0.97159   0.26315 
C          C       0.03588   0.85896   0.22680 
C          C       0.96412   0.85896   0.27320 
C          C       0.96412   0.14104   0.27320 
C          C       0.03588   0.14104   0.22680 
C          C       0.07128   0.88721   0.24012 
C          C       0.92872   0.88721   0.25988 
C          C       0.92872   0.11279   0.25988 
C          C       0.07128   0.11279   0.24012 
C          C       0.10608   0.14111   0.21026 
C          C       0.89392   0.14111   0.28974 
C          C       0.89392   0.85889   0.28974 
C          C       0.10608   0.85889   0.21026 
C          C       0.07205   0.22324   0.15725 
C          C       0.92795   0.22324   0.34275 
C          C       0.92795   0.77676   0.34275 
C          C       0.07205   0.77676   0.15725 
C          C       0.03723   0.19606   0.18319 
C          C       0.96277   0.19606   0.31681 
C          C       0.96277   0.80394   0.31681 
C          C       0.03723   0.80394   0.18319 
C          C       0.89319   0.80437   0.32890 
C          C       0.10681   0.80437   0.17109 
C          C       0.10681   0.19563   0.17109 
C          C       0.89319   0.19563   0.32890 
C          C       0.14365   0.77569   0.15077 
C          C       0.85635   0.77569   0.34923 
C          C       0.85635   0.22431   0.34923 
C          C       0.14365   0.22431   0.15077 
N          N       0.17650   0.80094   0.15531 
N          N       0.82350   0.80094   0.34469 
N          N       0.82350   0.19906   0.34469 
N          N       0.17650   0.19906   0.15531 
C          C       0.21335   0.77471   0.14474 
C          C       0.78665   0.77471   0.35526 
C          C       0.78665   0.22529   0.35526 
C          C       0.21335   0.22529   0.14474 
C          C       0.75290   0.80573   0.35589 
C          C       0.24710   0.80573   0.14411 
C          C       0.24710   0.19427   0.14411 
C          C       0.75290   0.19427   0.35589 
C          C       0.71643   0.78129   0.35613 
C          C       0.28357   0.78129   0.14387 
C          C       0.28357   0.21871   0.14387 
C          C       0.71643   0.21871   0.35613 
H          H       0.70118   0.44954   0.03297 
H          H       0.29882   0.44954   0.46703 
H          H       0.29882   0.55046   0.46703 
H          H       0.70118   0.55046   0.03297 
H          H       0.63963   0.60049   0.12178 
H          H       0.36037   0.60049   0.37822 
H          H       0.36037   0.39951   0.37822 
H          H       0.63963   0.39951   0.12178 
H          H       0.63514   0.61938   0.28248 
H          H       0.36486   0.61938   0.21752 
H          H       0.36486   0.38062   0.21752 
H          H       0.63514   0.38062   0.28248 
H          H       0.57217   0.76788   0.37528 
H          H       0.42783   0.76788   0.12472 
H          H       0.42783   0.23212   0.12472 
H          H       0.57217   0.23212   0.37528 
H          H       0.50847   0.71826   0.33066 
H          H       0.49153   0.71826   0.16934 
H          H       0.49153   0.28174   0.16934 
H          H       0.50847   0.28174   0.33066 
H          H       0.64373   0.23048   0.36954 
H          H       0.35627   0.23048   0.13046 
H          H       0.35627   0.76952   0.13046 
H          H       0.64373   0.76952   0.36954 
H          H       0.25503   0.35118   0.14370 
H          H       0.74497   0.35118   0.35630 
H          H       0.74497   0.64882   0.35630 
H          H       0.25503   0.64882   0.14370 
H          H       0.18898   0.30677   0.14304 
H          H       0.81102   0.30677   0.35696 
H          H       0.81102   0.69323   0.35696 
H          H       0.18898   0.69323   0.14304 
H          H       0.20120   0.94954   0.46768 
H          H       0.79880   0.94954   0.03232 
H          H       0.79880   0.05046   0.03232 
H          H       0.20120   0.05046   0.46768 
H          H       0.13965   0.10049   0.37862 
H          H       0.86035   0.10049   0.12137 
H          H       0.86035   0.89951   0.12137 
H          H       0.13965   0.89951   0.37862 
H          H       0.13513   0.11937   0.21774 
H          H       0.86487   0.11937   0.28226 
H          H       0.86487   0.88063   0.28226 
H          H       0.13513   0.88063   0.21774 
H          H       0.07215   0.26787   0.12483 
H          H       0.92785   0.26787   0.37517 
H          H       0.92785   0.73213   0.37517 
H          H       0.07215   0.73213   0.12483 
H          H       0.00846   0.21826   0.16937 
H          H       0.99154   0.21826   0.33063 
H          H       0.99154   0.78174   0.33063 
H          H       0.00846   0.78174   0.16937 
H          H       0.14371   0.73049   0.13060 
H          H       0.85629   0.73049   0.36940 
H          H       0.85629   0.26951   0.36940 
H          H       0.14371   0.26951   0.13060 
H          H       0.75505   0.85120   0.35622 
H          H       0.24495   0.85120   0.14378 
H          H       0.24495   0.14880   0.14378 
H          H       0.75505   0.14880   0.35622 
H          H       0.68900   0.80679   0.35698 
H          H       0.31100   0.80679   0.14302 
H          H       0.31100   0.19321   0.14302 
H          H       0.68900   0.19321   0.35698 
C          C       0.50000   0.55682   0.25000 
C          C       0.50000   0.44318   0.25000 
C          C       0.50000   0.38629   0.25000 
C          C       0.50000   0.61371   0.25000 
C          C       0.00000   0.05682   0.25000 
C          C       0.00000   0.94318   0.25000 
C          C       0.00000   0.88629   0.25000 
C          C       0.00000   0.11371   0.25000 
C          C       0.67375   0.47232   0.57356 
C          C       0.32625   0.47232   0.92644 
C          C       0.32625   0.52768   0.92644 
C          C       0.67375   0.52768   0.57356 
C          C       0.64011   0.55493   0.62336 
C          C       0.35989   0.55493   0.87664 
C          C       0.35989   0.44507   0.87664 
C          C       0.64011   0.44507   0.62336 
C          C       0.60573   0.52824   0.67705 
C          C       0.39427   0.52824   0.82295 
C          C       0.39427   0.47176   0.82295 
C          C       0.60573   0.47176   0.67705 
C          C       0.57134   0.55685   0.72416 
C          C       0.42866   0.55685   0.77584 
C          C       0.42866   0.44315   0.77584 
C          C       0.57134   0.44315   0.72416 
C          C       0.53566   0.52841   0.73694 
C          C       0.46434   0.52841   0.76306 
C          C       0.46434   0.47159   0.76306 
C          C       0.53566   0.47159   0.73694 
C          C       0.53589   0.35896   0.77327 
C          C       0.46411   0.35896   0.72673 
C          C       0.46411   0.64104   0.72673 
C          C       0.53589   0.64104   0.77327 
C          C       0.57128   0.38720   0.76003 
C          C       0.42872   0.38720   0.73997 
C          C       0.42872   0.61280   0.73997 
C          C       0.57128   0.61280   0.76003 
C          C       0.60609   0.64111   0.78992 
C          C       0.39391   0.64111   0.71008 
C          C       0.39391   0.35889   0.71008 
C          C       0.60609   0.35889   0.78992 
C          C       0.57207   0.72325   0.84286 
C          C       0.42793   0.72325   0.65714 
C          C       0.42793   0.27675   0.65714 
C          C       0.57207   0.27675   0.84286 
C          C       0.53724   0.69607   0.81688 
C          C       0.46276   0.69607   0.68312 
C          C       0.46276   0.30393   0.68312 
C          C       0.53724   0.30393   0.81688 
C          C       0.39317   0.30436   0.67095 
C          C       0.60683   0.30436   0.82905 
C          C       0.60683   0.69564   0.82905 
C          C       0.39317   0.69564   0.67095 
C          C       0.64366   0.27568   0.84936 
C          C       0.35634   0.27568   0.65064 
C          C       0.35634   0.72432   0.65064 
C          C       0.64366   0.72432   0.84936 
N          N       0.67652   0.30092   0.84480 
N          N       0.32348   0.30092   0.65521 
N          N       0.32348   0.69908   0.65521 
N          N       0.67652   0.69908   0.84480 
C          C       0.71337   0.27469   0.85532 
C          C       0.28663   0.27469   0.64468 
C          C       0.28663   0.72531   0.64468 
C          C       0.71337   0.72531   0.85532 
C          C       0.25288   0.30571   0.64406 
C          C       0.74712   0.30571   0.85594 
C          C       0.74712   0.69429   0.85594 
C          C       0.25288   0.69429   0.64406 
C          C       0.21641   0.28127   0.64388 
C          C       0.78359   0.28127   0.85612 
C          C       0.78359   0.71873   0.85612 
C          C       0.21641   0.71873   0.64388 
C          C       0.17377   0.97232   0.92697 
C          C       0.82623   0.97232   0.57303 
C          C       0.82623   0.02768   0.57303 
C          C       0.17377   0.02768   0.92697 
C          C       0.14013   0.05493   0.87704 
C          C       0.85987   0.05493   0.62296 
C          C       0.85987   0.94507   0.62296 
C          C       0.14013   0.94507   0.87704 
C          C       0.10574   0.02824   0.82322 
C          C       0.89426   0.02824   0.67678 
C          C       0.89426   0.97176   0.67678 
C          C       0.10574   0.97176   0.82322 
C          C       0.07134   0.05685   0.77601 
C          C       0.92866   0.05685   0.72400 
C          C       0.92866   0.94315   0.72400 
C          C       0.07134   0.94315   0.77601 
C          C       0.03566   0.02841   0.76315 
C          C       0.96434   0.02841   0.73685 
C          C       0.96434   0.97159   0.73685 
C          C       0.03566   0.97159   0.76315 
C          C       0.03588   0.85896   0.72681 
C          C       0.96412   0.85896   0.77320 
C          C       0.96412   0.14104   0.77320 
C          C       0.03588   0.14104   0.72681 
C          C       0.07128   0.88721   0.74011 
C          C       0.92872   0.88721   0.75989 
C          C       0.92872   0.11279   0.75989 
C          C       0.07128   0.11279   0.74011 
C          C       0.10608   0.14111   0.71026 
C          C       0.89392   0.14111   0.78975 
C          C       0.89392   0.85889   0.78975 
C          C       0.10608   0.85889   0.71026 
C          C       0.07205   0.22324   0.65725 
C          C       0.92795   0.22324   0.84275 
C          C       0.92795   0.77676   0.84275 
C          C       0.07205   0.77676   0.65725 
C          C       0.03723   0.19606   0.68319 
C          C       0.96277   0.19606   0.81681 
C          C       0.96277   0.80394   0.81681 
C          C       0.03723   0.80394   0.68319 
C          C       0.89319   0.80437   0.82891 
C          C       0.10681   0.80437   0.67109 
C          C       0.10681   0.19563   0.67109 
C          C       0.89319   0.19563   0.82891 
C          C       0.14365   0.77569   0.65077 
C          C       0.85635   0.77569   0.84923 
C          C       0.85635   0.22431   0.84923 
C          C       0.14365   0.22431   0.65077 
N          N       0.17650   0.80094   0.65531 
N          N       0.82350   0.80094   0.84469 
N          N       0.82350   0.19906   0.84469 
N          N       0.17650   0.19906   0.65531 
C          C       0.21335   0.77471   0.64474 
C          C       0.78665   0.77471   0.85526 
C          C       0.78665   0.22529   0.85526 
C          C       0.21335   0.22529   0.64474 
C          C       0.75290   0.80573   0.85589 
C          C       0.24710   0.80573   0.64411 
C          C       0.24710   0.19427   0.64411 
C          C       0.75290   0.19427   0.85589 
C          C       0.71643   0.78129   0.85613 
C          C       0.28357   0.78129   0.64387 
C          C       0.28357   0.21871   0.64387 
C          C       0.71643   0.21871   0.85613 
H          H       0.70118   0.44954   0.53297 
H          H       0.29882   0.44954   0.96704 
H          H       0.29882   0.55046   0.96704 
H          H       0.70118   0.55046   0.53297 
H          H       0.63963   0.60049   0.62177 
H          H       0.36037   0.60049   0.87822 
H          H       0.36037   0.39951   0.87822 
H          H       0.63963   0.39951   0.62177 
H          H       0.63514   0.61938   0.78248 
H          H       0.36486   0.61938   0.71752 
H          H       0.36486   0.38062   0.71752 
H          H       0.63514   0.38062   0.78248 
H          H       0.57217   0.76788   0.87528 
H          H       0.42783   0.76788   0.62472 
H          H       0.42783   0.23212   0.62472 
H          H       0.57217   0.23212   0.87528 
H          H       0.50847   0.71826   0.83066 
H          H       0.49153   0.71826   0.66934 
H          H       0.49153   0.28174   0.66934 
H          H       0.50847   0.28174   0.83066 
H          H       0.64373   0.23048   0.86954 
H          H       0.35627   0.23048   0.63047 
H          H       0.35627   0.76952   0.63047 
H          H       0.64373   0.76952   0.86954 
H          H       0.25503   0.35118   0.64370 
H          H       0.74497   0.35118   0.85631 
H          H       0.74497   0.64882   0.85631 
H          H       0.25503   0.64882   0.64370 
H          H       0.18898   0.30677   0.64304 
H          H       0.81102   0.30677   0.85696 
H          H       0.81102   0.69323   0.85696 
H          H       0.18898   0.69323   0.64304 
H          H       0.20120   0.94954   0.96767 
H          H       0.79880   0.94954   0.53232 
H          H       0.79880   0.05046   0.53232 
H          H       0.20120   0.05046   0.96767 
H          H       0.13965   0.10049   0.87862 
H          H       0.86035   0.10049   0.62138 
H          H       0.86035   0.89951   0.62138 
H          H       0.13965   0.89951   0.87862 
H          H       0.13513   0.11937   0.71774 
H          H       0.86487   0.11937   0.78226 
H          H       0.86487   0.88063   0.78226 
H          H       0.13513   0.88063   0.71774 
H          H       0.07215   0.26787   0.62483 
H          H       0.92785   0.26787   0.87517 
H          H       0.92785   0.73213   0.87517 
H          H       0.07215   0.73213   0.62483 
H          H       0.00846   0.21826   0.66937 
H          H       0.99154   0.21826   0.83063 
H          H       0.99154   0.78174   0.83063 
H          H       0.00846   0.78174   0.66937 
H          H       0.14371   0.73049   0.63060 
H          H       0.85629   0.73049   0.86940 
H          H       0.85629   0.26951   0.86940 
H          H       0.14371   0.26951   0.63060 
H          H       0.75505   0.85120   0.85622 
H          H       0.24495   0.85120   0.64378 
H          H       0.24495   0.14880   0.64378 
H          H       0.75505   0.14880   0.85622 
H          H       0.68900   0.80679   0.85698 
H          H       0.31100   0.80679   0.64302 
H          H       0.31100   0.19321   0.64302 
H          H       0.68900   0.19321   0.85698 
C          C       0.50000   0.55682   0.75000 
C          C       0.50000   0.44318   0.75000 
C          C       0.50000   0.38629   0.75000 
C          C       0.50000   0.61371   0.75000 
C          C       0.00000   0.05682   0.75000 
C          C       0.00000   0.94318   0.75000 
C          C       0.00000   0.88629   0.75000 
C          C       0.00000   0.11371   0.75000 
