data_crystal
 
_cell_length_a    41.09140
_cell_length_b    41.09140
_cell_length_c    13.24480
_cell_angle_alpha 90.00000
_cell_angle_beta  90.00000
_cell_angle_gamma 120.00000
 
_space_group_name_Hall 'P 1'
_space_group_name_H-M_alt  'P 1'
 
loop_
_symmetry_equiv_pos_as_xyz
 'x,y,z' 
 
loop_
_atom_site_label
_atom_site_type_symbol
_atom_site_fract_x
_atom_site_fract_y
_atom_site_fract_z
C          C       0.83819   0.46632   0.44221 
C          C       0.53368   0.37187   0.44221 
C          C       0.62813   0.16181   0.44221 
C          C       0.16181   0.53368   0.44221 
C          C       0.46632   0.62813   0.44221 
C          C       0.37187   0.83819   0.44221 
C          C       0.82996   0.42897   0.44348 
C          C       0.57103   0.40099   0.44348 
C          C       0.59901   0.17004   0.44348 
C          C       0.17004   0.57103   0.44348 
C          C       0.42897   0.59901   0.44348 
C          C       0.40099   0.82996   0.44348 
C          C       0.85868   0.42044   0.43161 
C          C       0.57956   0.43824   0.43161 
C          C       0.56176   0.14132   0.43161 
C          C       0.14132   0.57956   0.43161 
C          C       0.42044   0.56176   0.43161 
C          C       0.43824   0.85868   0.43161 
C          C       0.89601   0.44938   0.41902 
C          C       0.55062   0.44663   0.41902 
C          C       0.55337   0.10399   0.41902 
C          C       0.10399   0.55062   0.41902 
C          C       0.44938   0.55337   0.41902 
C          C       0.44663   0.89601   0.41902 
C          C       0.90436   0.48716   0.41898 
C          C       0.51284   0.41720   0.41898 
C          C       0.58280   0.09564   0.41898 
C          C       0.09564   0.51284   0.41898 
C          C       0.48716   0.58280   0.41898 
C          C       0.41720   0.90436   0.41898 
C          C       0.87524   0.49538   0.42985 
C          C       0.50462   0.37986   0.42985 
C          C       0.62014   0.12476   0.42985 
C          C       0.12476   0.50462   0.42985 
C          C       0.49538   0.62014   0.42985 
C          C       0.37986   0.87524   0.42985 
C          C       0.92493   0.44116   0.40429 
C          C       0.55884   0.48377   0.40429 
C          C       0.51623   0.07507   0.40429 
C          C       0.07507   0.55884   0.40429 
C          C       0.44116   0.51623   0.40429 
C          C       0.48377   0.92493   0.40429 
C          C       0.96125   0.46979   0.37754 
C          C       0.53021   0.49146   0.37754 
C          C       0.50854   0.03875   0.37754 
C          C       0.03875   0.53021   0.37754 
C          C       0.46979   0.50854   0.37754 
C          C       0.49146   0.96125   0.37754 
C          C       0.96954   0.50755   0.37882 
C          C       0.49245   0.46199   0.37882 
C          C       0.53801   0.03046   0.37882 
C          C       0.03046   0.49245   0.37882 
C          C       0.50755   0.53801   0.37882 
C          C       0.46199   0.96954   0.37882 
C          C       0.94152   0.51602   0.40614 
C          C       0.48398   0.42550   0.40614 
C          C       0.57450   0.05848   0.40614 
C          C       0.05848   0.48398   0.40614 
C          C       0.51602   0.57450   0.40614 
C          C       0.42550   0.94152   0.40614 
C          C       0.99209   0.46245   0.34703 
C          C       0.53755   0.52964   0.34703 
C          C       0.47036   0.00791   0.34703 
C          C       0.00791   0.53755   0.34703 
C          C       0.46245   0.47036   0.34703 
C          C       0.52964   0.99209   0.34703 
C          C       0.01293   0.56479   0.27892 
C          C       0.43521   0.44814   0.27892 
C          C       0.55186   0.98707   0.27892 
C          C       0.98707   0.43521   0.27892 
C          C       0.56479   0.55186   0.27892 
C          C       0.44814   0.01293   0.27892 
C          C       0.98050   0.56493   0.22874 
C          C       0.43507   0.41557   0.22874 
C          C       0.58443   0.01950   0.22874 
C          C       0.01950   0.43507   0.22874 
C          C       0.56493   0.58443   0.22874 
C          C       0.41557   0.98050   0.22874 
C          C       0.05069   0.59494   0.24839 
C          C       0.40506   0.45575   0.24839 
C          C       0.54425   0.94931   0.24839 
C          C       0.94931   0.40506   0.24839 
C          C       0.59494   0.54425   0.24839 
C          C       0.45575   0.05069   0.24839 
C          C       0.04789   0.46769   0.18168 
C          C       0.53231   0.58020   0.18168 
C          C       0.41980   0.95211   0.18168 
C          C       0.95211   0.53231   0.18168 
C          C       0.46769   0.41980   0.18168 
C          C       0.58020   0.04789   0.18168 
C          C       0.08184   0.47006   0.15410 
C          C       0.52994   0.61178   0.15410 
C          C       0.38822   0.91816   0.15410 
C          C       0.91816   0.52994   0.15410 
C          C       0.47006   0.38822   0.15410 
C          C       0.61178   0.08184   0.15410 
C          C       0.08670   0.43872   0.16553 
C          C       0.56128   0.64798   0.16553 
C          C       0.35202   0.91330   0.16553 
C          C       0.91330   0.56128   0.16553 
C          C       0.43872   0.35202   0.16553 
C          C       0.64798   0.08670   0.16553 
C          C       0.05690   0.40509   0.20212 
C          C       0.59491   0.65181   0.20212 
C          C       0.34819   0.94310   0.20212 
C          C       0.94310   0.59491   0.20212 
C          C       0.40509   0.34819   0.20212 
C          C       0.65181   0.05690   0.20212 
C          C       0.02379   0.40330   0.23479 
C          C       0.59670   0.62049   0.23479 
C          C       0.37951   0.97621   0.23479 
C          C       0.97621   0.59670   0.23479 
C          C       0.40330   0.37951   0.23479 
C          C       0.62049   0.02379   0.23479 
C          C       0.92857   0.41143   0.17473 
C          C       0.58857   0.51714   0.17473 
C          C       0.48286   0.07143   0.17473 
C          C       0.07143   0.58857   0.17473 
C          C       0.41143   0.48286   0.17473 
C          C       0.51714   0.92857   0.17473 
C          C       0.89278   0.38247   0.14716 
C          C       0.61753   0.51031   0.14716 
C          C       0.48969   0.10722   0.14716 
C          C       0.10722   0.61753   0.14716 
C          C       0.38247   0.48969   0.14716 
C          C       0.51031   0.89278   0.14716 
C          C       0.87802   0.34667   0.19009 
C          C       0.65333   0.53135   0.19009 
C          C       0.46865   0.12198   0.19009 
C          C       0.12198   0.65333   0.19009 
C          C       0.34667   0.46865   0.19009 
C          C       0.53135   0.87802   0.19009 
C          C       0.89859   0.34068   0.26526 
C          C       0.65932   0.55791   0.26526 
C          C       0.44209   0.10141   0.26526 
C          C       0.10141   0.65932   0.26526 
C          C       0.34068   0.44209   0.26526 
C          C       0.55791   0.89859   0.26526 
C          C       0.93381   0.36967   0.29445 
C          C       0.63033   0.56414   0.29445 
C          C       0.43586   0.06619   0.29445 
C          C       0.06619   0.63033   0.29445 
C          C       0.36967   0.43586   0.29445 
C          C       0.56414   0.93381   0.29445 
C          C       0.79093   0.21495   0.11784 
C          C       0.78505   0.57598   0.11784 
C          C       0.42402   0.20907   0.11784 
C          C       0.20907   0.78505   0.11784 
C          C       0.21495   0.42402   0.11784 
C          C       0.57598   0.79093   0.11784 
C          C       0.75490   0.18367   0.11423 
C          C       0.81633   0.57123   0.11423 
C          C       0.42877   0.24510   0.11423 
C          C       0.24510   0.81633   0.11423 
C          C       0.18367   0.42877   0.11423 
C          C       0.57123   0.75490   0.11423 
C          C       0.72314   0.18783   0.12482 
C          C       0.81217   0.53531   0.12482 
C          C       0.46469   0.27686   0.12482 
C          C       0.27686   0.81217   0.12482 
C          C       0.18783   0.46469   0.12482 
C          C       0.53531   0.72314   0.12482 
C          C       0.72813   0.22411   0.13337 
C          C       0.77589   0.50402   0.13337 
C          C       0.49598   0.27187   0.13337 
C          C       0.27187   0.77589   0.13337 
C          C       0.22411   0.49598   0.13337 
C          C       0.50402   0.72813   0.13337 
C          C       0.76436   0.25557   0.13682 
C          C       0.74443   0.50879   0.13682 
C          C       0.49121   0.23564   0.13682 
C          C       0.23564   0.74443   0.13682 
C          C       0.25557   0.49121   0.13682 
C          C       0.50879   0.76436   0.13682 
C          C       0.79604   0.25103   0.13165 
C          C       0.74897   0.54501   0.13165 
C          C       0.45499   0.20396   0.13165 
C          C       0.20396   0.74897   0.13165 
C          C       0.25103   0.45499   0.13165 
C          C       0.54501   0.79604   0.13165 
C          C       0.83445   0.28247   0.14924 
C          C       0.71753   0.55198   0.14924 
C          C       0.44802   0.16555   0.14924 
C          C       0.16555   0.71753   0.14924 
C          C       0.28247   0.44802   0.14924 
C          C       0.55198   0.83445   0.14924 
C          C       0.68527   0.15455   0.13516 
C          C       0.84545   0.53072   0.13516 
C          C       0.46928   0.31473   0.13516 
C          C       0.31473   0.84545   0.13516 
C          C       0.15455   0.46928   0.13516 
C          C       0.53072   0.68527   0.13516 
N          N       0.84168   0.31690   0.15965 
N          N       0.68310   0.52478   0.15965 
N          N       0.47522   0.15832   0.15965 
N          N       0.15832   0.68310   0.15965 
N          N       0.31690   0.47522   0.15965 
N          N       0.52478   0.84168   0.15965 
N          N       0.12147   0.43975   0.14488 
N          N       0.56025   0.68172   0.14488 
N          N       0.31828   0.87853   0.14488 
N          N       0.87853   0.56025   0.14488 
N          N       0.43975   0.31828   0.14488 
N          N       0.68172   0.12147   0.14488 
H          H       0.81582   0.47277   0.45077 
H          H       0.52723   0.34305   0.45077 
H          H       0.65695   0.18418   0.45077 
H          H       0.18418   0.52723   0.45077 
H          H       0.47277   0.65695   0.45077 
H          H       0.34305   0.81582   0.45077 
H          H       0.80121   0.40655   0.45277 
H          H       0.59345   0.39466   0.45277 
H          H       0.60534   0.19879   0.45277 
H          H       0.19879   0.59345   0.45277 
H          H       0.40655   0.60534   0.45277 
H          H       0.39466   0.80121   0.45277 
H          H       0.85161   0.39126   0.43036 
H          H       0.60874   0.46035   0.43036 
H          H       0.53965   0.14839   0.43036 
H          H       0.14839   0.60874   0.43036 
H          H       0.39126   0.53965   0.43036 
H          H       0.46035   0.85161   0.43036 
H          H       0.88113   0.52420   0.42882 
H          H       0.47580   0.35693   0.42882 
H          H       0.64307   0.11887   0.42882 
H          H       0.11887   0.47580   0.42882 
H          H       0.52420   0.64307   0.42882 
H          H       0.35693   0.88113   0.42882 
H          H       0.91873   0.41247   0.41163 
H          H       0.58753   0.50626   0.41163 
H          H       0.49374   0.08127   0.41163 
H          H       0.08127   0.58753   0.41163 
H          H       0.41247   0.49374   0.41163 
H          H       0.50626   0.91873   0.41163 
H          H       0.94820   0.54504   0.41096 
H          H       0.45496   0.40316   0.41096 
H          H       0.59684   0.05180   0.41096 
H          H       0.05180   0.45496   0.41096 
H          H       0.54504   0.59684   0.41096 
H          H       0.40316   0.94820   0.41096 
H          H       0.04480   0.49222   0.17309 
H          H       0.50778   0.55258   0.17309 
H          H       0.44742   0.95520   0.17309 
H          H       0.95520   0.50778   0.17309 
H          H       0.49222   0.44742   0.17309 
H          H       0.55258   0.04480   0.17309 
H          H       0.10414   0.49653   0.12616 
H          H       0.50347   0.60761   0.12616 
H          H       0.39239   0.89586   0.12616 
H          H       0.89586   0.50347   0.12616 
H          H       0.49653   0.39239   0.12616 
H          H       0.60761   0.10414   0.12616 
H          H       0.06015   0.38065   0.21048 
H          H       0.61935   0.67950   0.21048 
H          H       0.32050   0.93985   0.21048 
H          H       0.93985   0.61935   0.21048 
H          H       0.38065   0.32050   0.21048 
H          H       0.67950   0.06015   0.21048 
H          H       0.00257   0.37756   0.26915 
H          H       0.62244   0.62501   0.26915 
H          H       0.37499   0.99743   0.26915 
H          H       0.99743   0.62244   0.26915 
H          H       0.37756   0.37499   0.26915 
H          H       0.62501   0.00257   0.26915 
H          H       0.93997   0.43877   0.13946 
H          H       0.56123   0.50120   0.13946 
H          H       0.49880   0.06003   0.13946 
H          H       0.06003   0.56123   0.13946 
H          H       0.43877   0.49880   0.13946 
H          H       0.50120   0.93997   0.13946 
H          H       0.87680   0.38765   0.09128 
H          H       0.61235   0.48915   0.09128 
H          H       0.51085   0.12320   0.09128 
H          H       0.12320   0.61235   0.09128 
H          H       0.38765   0.51085   0.09128 
H          H       0.48915   0.87680   0.09128 
H          H       0.88709   0.31373   0.30266 
H          H       0.68627   0.57336   0.30266 
H          H       0.42664   0.11291   0.30266 
H          H       0.11291   0.68627   0.30266 
H          H       0.31373   0.42664   0.30266 
H          H       0.57336   0.88709   0.30266 
H          H       0.94868   0.36470   0.35448 
H          H       0.63530   0.58398   0.35448 
H          H       0.41602   0.05132   0.35448 
H          H       0.05132   0.63530   0.35448 
H          H       0.36470   0.41602   0.35448 
H          H       0.58398   0.94868   0.35448 
H          H       0.81492   0.21077   0.11326 
H          H       0.78923   0.60415   0.11326 
H          H       0.39585   0.18508   0.11326 
H          H       0.18508   0.78923   0.11326 
H          H       0.21077   0.39585   0.11326 
H          H       0.60415   0.81492   0.11326 
H          H       0.75203   0.15611   0.10661 
H          H       0.84389   0.59592   0.10661 
H          H       0.40408   0.24797   0.10661 
H          H       0.24797   0.84389   0.10661 
H          H       0.15611   0.40408   0.10661 
H          H       0.59592   0.75203   0.10661 
H          H       0.70405   0.22800   0.14132 
H          H       0.77200   0.47605   0.14132 
H          H       0.52395   0.29595   0.14132 
H          H       0.29595   0.77200   0.14132 
H          H       0.22800   0.52395   0.14132 
H          H       0.47605   0.70405   0.14132 
H          H       0.76753   0.28314   0.14748 
H          H       0.71686   0.48439   0.14748 
H          H       0.51561   0.23247   0.14748 
H          H       0.23247   0.71686   0.14748 
H          H       0.28314   0.51561   0.14748 
H          H       0.48439   0.76753   0.14748 
H          H       0.85687   0.27598   0.15743 
H          H       0.72402   0.58089   0.15743 
H          H       0.41911   0.14313   0.15743 
H          H       0.14313   0.72402   0.15743 
H          H       0.27598   0.41911   0.15743 
H          H       0.58089   0.85687   0.15743 
H          H       0.66134   0.15858   0.14397 
H          H       0.84142   0.50276   0.14397 
H          H       0.49724   0.33866   0.14397 
H          H       0.33866   0.84142   0.14397 
H          H       0.15858   0.49724   0.14397 
H          H       0.50276   0.66134   0.14397 
C          C       0.83819   0.46632   0.94221 
C          C       0.53368   0.37187   0.94221 
C          C       0.62813   0.16181   0.94221 
C          C       0.16181   0.53368   0.94221 
C          C       0.46632   0.62813   0.94221 
C          C       0.37187   0.83819   0.94221 
C          C       0.82996   0.42897   0.94348 
C          C       0.57103   0.40099   0.94348 
C          C       0.59901   0.17004   0.94348 
C          C       0.17004   0.57103   0.94348 
C          C       0.42897   0.59901   0.94348 
C          C       0.40099   0.82996   0.94348 
C          C       0.85868   0.42044   0.93161 
C          C       0.57956   0.43824   0.93161 
C          C       0.56176   0.14132   0.93161 
C          C       0.14132   0.57956   0.93161 
C          C       0.42044   0.56176   0.93161 
C          C       0.43824   0.85868   0.93161 
C          C       0.89601   0.44938   0.91902 
C          C       0.55062   0.44663   0.91902 
C          C       0.55337   0.10399   0.91902 
C          C       0.10399   0.55062   0.91902 
C          C       0.44938   0.55337   0.91902 
C          C       0.44663   0.89601   0.91902 
C          C       0.90436   0.48716   0.91898 
C          C       0.51284   0.41720   0.91898 
C          C       0.58280   0.09564   0.91898 
C          C       0.09564   0.51284   0.91898 
C          C       0.48716   0.58280   0.91898 
C          C       0.41720   0.90436   0.91898 
C          C       0.87524   0.49538   0.92985 
C          C       0.50462   0.37986   0.92985 
C          C       0.62014   0.12476   0.92985 
C          C       0.12476   0.50462   0.92985 
C          C       0.49538   0.62014   0.92985 
C          C       0.37986   0.87524   0.92985 
C          C       0.92493   0.44116   0.90429 
C          C       0.55884   0.48377   0.90429 
C          C       0.51623   0.07507   0.90429 
C          C       0.07507   0.55884   0.90429 
C          C       0.44116   0.51623   0.90429 
C          C       0.48377   0.92493   0.90429 
C          C       0.96125   0.46979   0.87754 
C          C       0.53021   0.49146   0.87754 
C          C       0.50854   0.03875   0.87754 
C          C       0.03875   0.53021   0.87754 
C          C       0.46979   0.50854   0.87754 
C          C       0.49146   0.96125   0.87754 
C          C       0.96954   0.50755   0.87882 
C          C       0.49245   0.46199   0.87882 
C          C       0.53801   0.03046   0.87882 
C          C       0.03046   0.49245   0.87882 
C          C       0.50755   0.53801   0.87882 
C          C       0.46199   0.96954   0.87882 
C          C       0.94152   0.51602   0.90614 
C          C       0.48398   0.42550   0.90614 
C          C       0.57450   0.05848   0.90614 
C          C       0.05848   0.48398   0.90614 
C          C       0.51602   0.57450   0.90614 
C          C       0.42550   0.94152   0.90614 
C          C       0.99209   0.46245   0.84703 
C          C       0.53755   0.52964   0.84703 
C          C       0.47036   0.00791   0.84703 
C          C       0.00791   0.53755   0.84703 
C          C       0.46245   0.47036   0.84703 
C          C       0.52964   0.99209   0.84703 
C          C       0.01293   0.56479   0.77892 
C          C       0.43521   0.44814   0.77892 
C          C       0.55186   0.98707   0.77892 
C          C       0.98707   0.43521   0.77892 
C          C       0.56479   0.55186   0.77892 
C          C       0.44814   0.01293   0.77892 
C          C       0.98050   0.56493   0.72874 
C          C       0.43507   0.41557   0.72874 
C          C       0.58443   0.01950   0.72874 
C          C       0.01950   0.43507   0.72874 
C          C       0.56493   0.58443   0.72874 
C          C       0.41557   0.98050   0.72874 
C          C       0.05069   0.59494   0.74839 
C          C       0.40506   0.45575   0.74839 
C          C       0.54425   0.94931   0.74839 
C          C       0.94931   0.40506   0.74839 
C          C       0.59494   0.54425   0.74839 
C          C       0.45575   0.05069   0.74839 
C          C       0.04789   0.46769   0.68168 
C          C       0.53231   0.58020   0.68168 
C          C       0.41980   0.95211   0.68168 
C          C       0.95211   0.53231   0.68168 
C          C       0.46769   0.41980   0.68168 
C          C       0.58020   0.04789   0.68168 
C          C       0.08184   0.47006   0.65410 
C          C       0.52994   0.61178   0.65410 
C          C       0.38822   0.91816   0.65410 
C          C       0.91816   0.52994   0.65410 
C          C       0.47006   0.38822   0.65410 
C          C       0.61178   0.08184   0.65410 
C          C       0.08670   0.43872   0.66553 
C          C       0.56128   0.64798   0.66553 
C          C       0.35202   0.91330   0.66553 
C          C       0.91330   0.56128   0.66553 
C          C       0.43872   0.35202   0.66553 
C          C       0.64798   0.08670   0.66553 
C          C       0.05690   0.40509   0.70212 
C          C       0.59491   0.65181   0.70212 
C          C       0.34819   0.94310   0.70212 
C          C       0.94310   0.59491   0.70212 
C          C       0.40509   0.34819   0.70212 
C          C       0.65181   0.05690   0.70212 
C          C       0.02379   0.40330   0.73479 
C          C       0.59670   0.62049   0.73479 
C          C       0.37951   0.97621   0.73479 
C          C       0.97621   0.59670   0.73479 
C          C       0.40330   0.37951   0.73479 
C          C       0.62049   0.02379   0.73479 
C          C       0.92857   0.41143   0.67473 
C          C       0.58857   0.51714   0.67473 
C          C       0.48286   0.07143   0.67473 
C          C       0.07143   0.58857   0.67473 
C          C       0.41143   0.48286   0.67473 
C          C       0.51714   0.92857   0.67473 
C          C       0.89278   0.38247   0.64716 
C          C       0.61753   0.51031   0.64716 
C          C       0.48969   0.10722   0.64716 
C          C       0.10722   0.61753   0.64716 
C          C       0.38247   0.48969   0.64716 
C          C       0.51031   0.89278   0.64716 
C          C       0.87802   0.34667   0.69010 
C          C       0.65333   0.53135   0.69010 
C          C       0.46865   0.12198   0.69010 
C          C       0.12198   0.65333   0.69010 
C          C       0.34667   0.46865   0.69010 
C          C       0.53135   0.87802   0.69010 
C          C       0.89859   0.34068   0.76526 
C          C       0.65932   0.55791   0.76526 
C          C       0.44209   0.10141   0.76526 
C          C       0.10141   0.65932   0.76526 
C          C       0.34068   0.44209   0.76526 
C          C       0.55791   0.89859   0.76526 
C          C       0.93381   0.36967   0.79445 
C          C       0.63033   0.56414   0.79445 
C          C       0.43586   0.06619   0.79445 
C          C       0.06619   0.63033   0.79445 
C          C       0.36967   0.43586   0.79445 
C          C       0.56414   0.93381   0.79445 
C          C       0.79093   0.21495   0.61784 
C          C       0.78505   0.57598   0.61784 
C          C       0.42402   0.20907   0.61784 
C          C       0.20907   0.78505   0.61784 
C          C       0.21495   0.42402   0.61784 
C          C       0.57598   0.79093   0.61784 
C          C       0.75490   0.18367   0.61423 
C          C       0.81633   0.57123   0.61423 
C          C       0.42877   0.24510   0.61423 
C          C       0.24510   0.81633   0.61423 
C          C       0.18367   0.42877   0.61423 
C          C       0.57123   0.75490   0.61423 
C          C       0.72314   0.18783   0.62482 
C          C       0.81217   0.53531   0.62482 
C          C       0.46469   0.27686   0.62482 
C          C       0.27686   0.81217   0.62482 
C          C       0.18783   0.46469   0.62482 
C          C       0.53531   0.72314   0.62482 
C          C       0.72813   0.22411   0.63337 
C          C       0.77589   0.50402   0.63337 
C          C       0.49598   0.27187   0.63337 
C          C       0.27187   0.77589   0.63337 
C          C       0.22411   0.49598   0.63337 
C          C       0.50402   0.72813   0.63337 
C          C       0.76436   0.25557   0.63683 
C          C       0.74443   0.50879   0.63683 
C          C       0.49121   0.23564   0.63683 
C          C       0.23564   0.74443   0.63683 
C          C       0.25557   0.49121   0.63683 
C          C       0.50879   0.76436   0.63683 
C          C       0.79604   0.25103   0.63165 
C          C       0.74897   0.54501   0.63165 
C          C       0.45499   0.20396   0.63165 
C          C       0.20396   0.74897   0.63165 
C          C       0.25103   0.45499   0.63165 
C          C       0.54501   0.79604   0.63165 
C          C       0.83445   0.28247   0.64924 
C          C       0.71753   0.55198   0.64924 
C          C       0.44802   0.16555   0.64924 
C          C       0.16555   0.71753   0.64924 
C          C       0.28247   0.44802   0.64924 
C          C       0.55198   0.83445   0.64924 
C          C       0.68527   0.15455   0.63516 
C          C       0.84545   0.53072   0.63516 
C          C       0.46928   0.31473   0.63516 
C          C       0.31473   0.84545   0.63516 
C          C       0.15455   0.46928   0.63516 
C          C       0.53072   0.68527   0.63516 
N          N       0.84168   0.31690   0.65965 
N          N       0.68310   0.52478   0.65965 
N          N       0.47522   0.15832   0.65965 
N          N       0.15832   0.68310   0.65965 
N          N       0.31690   0.47522   0.65965 
N          N       0.52478   0.84168   0.65965 
N          N       0.12147   0.43975   0.64489 
N          N       0.56025   0.68172   0.64489 
N          N       0.31828   0.87853   0.64489 
N          N       0.87853   0.56025   0.64489 
N          N       0.43975   0.31828   0.64489 
N          N       0.68172   0.12147   0.64489 
H          H       0.81582   0.47277   0.95077 
H          H       0.52723   0.34305   0.95077 
H          H       0.65695   0.18418   0.95077 
H          H       0.18418   0.52723   0.95077 
H          H       0.47277   0.65695   0.95077 
H          H       0.34305   0.81582   0.95077 
H          H       0.80121   0.40655   0.95277 
H          H       0.59345   0.39466   0.95277 
H          H       0.60534   0.19879   0.95277 
H          H       0.19879   0.59345   0.95277 
H          H       0.40655   0.60534   0.95277 
H          H       0.39466   0.80121   0.95277 
H          H       0.85161   0.39126   0.93036 
H          H       0.60874   0.46035   0.93036 
H          H       0.53965   0.14839   0.93036 
H          H       0.14839   0.60874   0.93036 
H          H       0.39126   0.53965   0.93036 
H          H       0.46035   0.85161   0.93036 
H          H       0.88113   0.52420   0.92882 
H          H       0.47580   0.35693   0.92882 
H          H       0.64307   0.11887   0.92882 
H          H       0.11887   0.47580   0.92882 
H          H       0.52420   0.64307   0.92882 
H          H       0.35693   0.88113   0.92882 
H          H       0.91873   0.41247   0.91163 
H          H       0.58753   0.50626   0.91163 
H          H       0.49374   0.08127   0.91163 
H          H       0.08127   0.58753   0.91163 
H          H       0.41247   0.49374   0.91163 
H          H       0.50626   0.91873   0.91163 
H          H       0.94820   0.54504   0.91096 
H          H       0.45496   0.40316   0.91096 
H          H       0.59684   0.05180   0.91096 
H          H       0.05180   0.45496   0.91096 
H          H       0.54504   0.59684   0.91096 
H          H       0.40316   0.94820   0.91096 
H          H       0.04480   0.49222   0.67309 
H          H       0.50778   0.55258   0.67309 
H          H       0.44742   0.95520   0.67309 
H          H       0.95520   0.50778   0.67309 
H          H       0.49222   0.44742   0.67309 
H          H       0.55258   0.04480   0.67309 
H          H       0.10414   0.49653   0.62616 
H          H       0.50347   0.60761   0.62616 
H          H       0.39239   0.89586   0.62616 
H          H       0.89586   0.50347   0.62616 
H          H       0.49653   0.39239   0.62616 
H          H       0.60761   0.10414   0.62616 
H          H       0.06015   0.38065   0.71048 
H          H       0.61935   0.67950   0.71048 
H          H       0.32050   0.93985   0.71048 
H          H       0.93985   0.61935   0.71048 
H          H       0.38065   0.32050   0.71048 
H          H       0.67950   0.06015   0.71048 
H          H       0.00257   0.37756   0.76915 
H          H       0.62244   0.62501   0.76915 
H          H       0.37499   0.99743   0.76915 
H          H       0.99743   0.62244   0.76915 
H          H       0.37756   0.37499   0.76915 
H          H       0.62501   0.00257   0.76915 
H          H       0.93997   0.43877   0.63946 
H          H       0.56123   0.50120   0.63946 
H          H       0.49880   0.06003   0.63946 
H          H       0.06003   0.56123   0.63946 
H          H       0.43877   0.49880   0.63946 
H          H       0.50120   0.93997   0.63946 
H          H       0.87680   0.38765   0.59127 
H          H       0.61235   0.48915   0.59127 
H          H       0.51085   0.12320   0.59127 
H          H       0.12320   0.61235   0.59127 
H          H       0.38765   0.51085   0.59127 
H          H       0.48915   0.87680   0.59127 
H          H       0.88709   0.31373   0.80266 
H          H       0.68627   0.57336   0.80266 
H          H       0.42664   0.11291   0.80266 
H          H       0.11291   0.68627   0.80266 
H          H       0.31373   0.42664   0.80266 
H          H       0.57336   0.88709   0.80266 
H          H       0.94868   0.36470   0.85448 
H          H       0.63530   0.58398   0.85448 
H          H       0.41602   0.05132   0.85448 
H          H       0.05132   0.63530   0.85448 
H          H       0.36470   0.41602   0.85448 
H          H       0.58398   0.94868   0.85448 
H          H       0.81492   0.21077   0.61326 
H          H       0.78923   0.60415   0.61326 
H          H       0.39585   0.18508   0.61326 
H          H       0.18508   0.78923   0.61326 
H          H       0.21077   0.39585   0.61326 
H          H       0.60415   0.81492   0.61326 
H          H       0.75203   0.15611   0.60661 
H          H       0.84389   0.59592   0.60661 
H          H       0.40408   0.24797   0.60661 
H          H       0.24797   0.84389   0.60661 
H          H       0.15611   0.40408   0.60661 
H          H       0.59592   0.75203   0.60661 
H          H       0.70405   0.22800   0.64132 
H          H       0.77200   0.47605   0.64132 
H          H       0.52395   0.29595   0.64132 
H          H       0.29595   0.77200   0.64132 
H          H       0.22800   0.52395   0.64132 
H          H       0.47605   0.70405   0.64132 
H          H       0.76753   0.28314   0.64748 
H          H       0.71686   0.48439   0.64748 
H          H       0.51561   0.23247   0.64748 
H          H       0.23247   0.71686   0.64748 
H          H       0.28314   0.51561   0.64748 
H          H       0.48439   0.76753   0.64748 
H          H       0.85687   0.27598   0.65743 
H          H       0.72402   0.58089   0.65743 
H          H       0.41911   0.14313   0.65743 
H          H       0.14313   0.72402   0.65743 
H          H       0.27598   0.41911   0.65743 
H          H       0.58089   0.85687   0.65743 
H          H       0.66134   0.15858   0.64397 
H          H       0.84142   0.50276   0.64397 
H          H       0.49724   0.33866   0.64397 
H          H       0.33866   0.84142   0.64397 
H          H       0.15858   0.49724   0.64397 
H          H       0.50276   0.66134   0.64397 
