data_crystal

_cell_length_a    43.24570
_cell_length_b    43.24570
_cell_length_c    9.13960
_cell_angle_alpha 90.00000
_cell_angle_beta  90.00000
_cell_angle_gamma 90.00000

_space_group_name_Hall 'P 1'
_space_group_name_H-M_alt 'P 1'

loop_
_symmetry_equiv_pos_as_xyz
 'x,y,z'

loop_
_atom_site_label
_atom_site_type_symbol
_atom_site_fract_x
_atom_site_fract_y
_atom_site_fract_z
C          C       0.50083   0.41796   0.25144
C          C       0.49917   0.58204   0.25144
C          C       0.41796   0.49917   0.24856
C          C       0.58204   0.50083   0.24856
C          C       0.47153   0.43423   0.26536
C          C       0.52847   0.56577   0.26536
C          C       0.43423   0.52847   0.23464
C          C       0.56577   0.47153   0.23464
C          C       0.44379   0.41990   0.29951
C          C       0.55621   0.58010   0.29951
C          C       0.41990   0.55621   0.20049
C          C       0.58010   0.44379   0.20049
C          C       0.42101   0.44224   0.29869
C          C       0.57899   0.55776   0.29869
C          C       0.44224   0.57899   0.20131
C          C       0.55776   0.42101   0.20131
C          C       0.43483   0.47023   0.26420
C          C       0.56517   0.52977   0.26420
C          C       0.47023   0.56517   0.23580
C          C       0.52977   0.43483   0.23580
N          N       0.46608   0.46536   0.24549
N          N       0.53392   0.53464   0.24549
N          N       0.46536   0.53392   0.25451
N          N       0.53464   0.46608   0.25451
C          C       0.50141   0.38148   0.25552
C          C       0.49859   0.61852   0.25552
C          C       0.38148   0.49859   0.24448
C          C       0.61852   0.50141   0.24448
H          H       0.44016   0.39576   0.32500
H          H       0.55984   0.60424   0.32500
H          H       0.39576   0.55984   0.17500
H          H       0.60424   0.44016   0.17500
H          H       0.39690   0.43817   0.32343
H          H       0.60310   0.56183   0.32343
H          H       0.43817   0.60310   0.17657
H          H       0.56183   0.39690   0.17657
C          C       0.48219   0.36255   0.16579
C          C       0.51781   0.63745   0.16579
C          C       0.36255   0.51781   0.33420
C          C       0.63745   0.48219   0.33420
C          C       0.48300   0.32930   0.17059
C          C       0.51700   0.67070   0.17059
C          C       0.32930   0.51700   0.32941
C          C       0.67070   0.48300   0.32941
C          C       0.50333   0.31291   0.26529
C          C       0.49667   0.68709   0.26529
C          C       0.31291   0.49667   0.23471
C          C       0.68709   0.50333   0.23471
C          C       0.52242   0.33179   0.35424
C          C       0.47758   0.66821   0.35424
C          C       0.33179   0.47758   0.14576
C          C       0.66821   0.52242   0.14576
C          C       0.52144   0.36485   0.35012
C          C       0.47856   0.63515   0.35012
C          C       0.36485   0.47856   0.14988
C          C       0.63515   0.52144   0.14988
N          N       0.50556   0.27842   0.27602
N          N       0.49444   0.72158   0.27602
N          N       0.27842   0.49444   0.22398
N          N       0.72158   0.50556   0.22398
C          C       0.49019   0.25663   0.20339
C          C       0.50981   0.74337   0.20339
C          C       0.25663   0.50981   0.29661
C          C       0.74337   0.49019   0.29661
C          C       0.49366   0.22085   0.22094
C          C       0.50634   0.77915   0.22094
C          C       0.22085   0.50634   0.27907
C          C       0.77915   0.49366   0.27907
C          C       0.47445   0.20103   0.13689
C          C       0.52555   0.79897   0.13689
C          C       0.20103   0.52555   0.36311
C          C       0.79897   0.47445   0.36311
C          C       0.47593   0.16809   0.14505
C          C       0.52407   0.83191   0.14505
C          C       0.16809   0.52407   0.35495
C          C       0.83191   0.47593   0.35495
C          C       0.49682   0.15223   0.23838
C          C       0.50318   0.84777   0.23838
C          C       0.15223   0.50318   0.26162
C          C       0.84777   0.49682   0.26162
C          C       0.51638   0.17209   0.32262
C          C       0.48362   0.82791   0.32262
C          C       0.17209   0.48362   0.17738
C          C       0.82791   0.51638   0.17738
C          C       0.51481   0.20537   0.31448
C          C       0.48519   0.79463   0.31448
C          C       0.20537   0.48519   0.18552
C          C       0.79463   0.51481   0.18552
H          H       0.46652   0.37356   0.08951
H          H       0.53348   0.62644   0.08951
H          H       0.37356   0.53348   0.41048
H          H       0.62644   0.46652   0.41048
H          H       0.46774   0.31667   0.09852
H          H       0.53226   0.68333   0.09852
H          H       0.31667   0.53226   0.40148
H          H       0.68333   0.46774   0.40148
H          H       0.53829   0.32077   0.42957
H          H       0.46171   0.67923   0.42957
H          H       0.32077   0.46171   0.07043
H          H       0.67923   0.53829   0.07043
H          H       0.53647   0.37757   0.42324
H          H       0.46353   0.62243   0.42324
H          H       0.37757   0.46353   0.07676
H          H       0.62243   0.53647   0.07676
H          H       0.47330   0.26402   0.12342
H          H       0.52670   0.73598   0.12342
H          H       0.26402   0.52670   0.37658
H          H       0.73598   0.47330   0.37658
H          H       0.45794   0.21117   0.06185
H          H       0.54206   0.78883   0.06185
H          H       0.21117   0.54206   0.43815
H          H       0.78883   0.45794   0.43815
H          H       0.46070   0.15510   0.07422
H          H       0.53930   0.84490   0.07422
H          H       0.15510   0.53930   0.42578
H          H       0.84490   0.46070   0.42578
C          C       0.49782   0.11583   0.24677
C          C       0.50218   0.88417   0.24677
C          C       0.11583   0.50218   0.25323
C          C       0.88417   0.49782   0.25323
H          H       0.53277   0.16199   0.39815
H          H       0.46723   0.83801   0.39815
H          H       0.16199   0.46723   0.10185
H          H       0.83801   0.53277   0.10185
H          H       0.53017   0.21893   0.38249
H          H       0.46983   0.78107   0.38249
H          H       0.21893   0.46983   0.11751
H          H       0.78107   0.53017   0.11751
C          C       0.90081   0.52454   0.20631
C          C       0.09919   0.47546   0.20631
C          C       0.52454   0.09919   0.29369
C          C       0.47546   0.90081   0.29369
C          C       0.93410   0.52496   0.19695
C          C       0.06590   0.47504   0.19695
C          C       0.52496   0.06590   0.30305
C          C       0.47504   0.93410   0.30305
C          C       0.95190   0.49966   0.24038
C          C       0.04810   0.50034   0.24038
C          C       0.49966   0.04810   0.25962
C          C       0.50034   0.95190   0.25962
C          C       0.93630   0.47334   0.29354
C          C       0.06370   0.52666   0.29354
C          C       0.47334   0.06370   0.20646
C          C       0.52666   0.93630   0.20646
C          C       0.90316   0.47231   0.29661
C          C       0.09684   0.52769   0.29661
C          C       0.47231   0.09684   0.20339
C          C       0.52769   0.90316   0.20339
C          C       0.98628   0.50859   0.23800
C          C       0.01372   0.49141   0.23800
C          C       0.50859   0.01372   0.26200
C          C       0.49141   0.98628   0.26200
C          C       0.98393   0.54094   0.18915
C          C       0.01607   0.45906   0.18915
C          C       0.54094   0.01607   0.31085
C          C       0.45906   0.98393   0.31085
N          N       0.95409   0.55067   0.15981
N          N       0.04591   0.44933   0.15981
N          N       0.55067   0.04591   0.34019
N          N       0.44933   0.95409   0.34019
O          O       0.00650   0.55674   0.16081
O          O       0.99350   0.44326   0.16081
O          O       0.55674   0.99350   0.33920
O          O       0.44326   0.00650   0.33920
H          H       0.88767   0.54501   0.18548
H          H       0.11233   0.45499   0.18548
H          H       0.54501   0.11233   0.31452
H          H       0.45499   0.88767   0.31452
H          H       0.94929   0.45391   0.33544
H          H       0.05071   0.54609   0.33544
H          H       0.45391   0.05071   0.16456
H          H       0.54609   0.94929   0.16456
H          H       0.89249   0.45121   0.33489
H          H       0.10751   0.54879   0.33489
H          H       0.45121   0.10751   0.16511
H          H       0.54879   0.89249   0.16511
C          C       0.94858   0.57751   0.06082
C          C       0.05142   0.42249   0.06082
C          C       0.57751   0.05142   0.43918
C          C       0.42249   0.94858   0.43918
C          C       0.91682   0.57761   0.48076
C          C       0.08318   0.42239   0.48076
C          C       0.57761   0.08318   0.01924
C          C       0.42239   0.91682   0.01924
C          C       0.89137   0.59826   0.04532
C          C       0.10863   0.40174   0.04532
C          C       0.59826   0.10863   0.45468
C          C       0.40174   0.89137   0.45468
C          C       0.95711   0.60858   0.13624
C          C       0.04289   0.39142   0.13624
C          C       0.60858   0.04289   0.36376
C          C       0.39142   0.95711   0.36376
C          C       0.96723   0.63348   0.02639
C          C       0.03277   0.36652   0.02639
C          C       0.63348   0.03277   0.47361
C          C       0.36652   0.96723   0.47361
C          C       0.97520   0.66369   0.10550
C          C       0.02480   0.33631   0.10550
C          C       0.66369   0.02480   0.39450
C          C       0.33631   0.97520   0.39450
C          C       0.98546   0.68866   0.49815
C          C       0.01454   0.31134   0.49815
C          C       0.68866   0.01454   0.00185
C          C       0.31134   0.98546   0.00185
H          H       0.96556   0.57456   0.47009
H          H       0.03444   0.42544   0.47009
H          H       0.57456   0.03444   0.02991
H          H       0.42544   0.96556   0.02991
H          H       0.90825   0.55382   0.46467
H          H       0.09175   0.44618   0.46467
H          H       0.55382   0.09175   0.03533
H          H       0.44618   0.90825   0.03533
H          H       0.92056   0.58591   0.36832
H          H       0.07944   0.41409   0.36832
H          H       0.58591   0.07944   0.13168
H          H       0.41409   0.92056   0.13168
H          H       0.88907   0.59545   0.16515
H          H       0.11093   0.40455   0.16515
H          H       0.59545   0.11093   0.33485
H          H       0.40455   0.88907   0.33485
H          H       0.86889   0.59232   0.49369
H          H       0.13111   0.40768   0.49369
H          H       0.59232   0.13111   0.00631
H          H       0.40768   0.86889   0.00631
H          H       0.89625   0.62295   0.02147
H          H       0.10375   0.37705   0.02147
H          H       0.62295   0.10375   0.47853
H          H       0.37705   0.89625   0.47853
H          H       0.97642   0.60487   0.21421
H          H       0.02358   0.39513   0.21421
H          H       0.60487   0.02358   0.28579
H          H       0.39513   0.97642   0.28579
H          H       0.93766   0.61773   0.20152
H          H       0.06234   0.38227   0.20152
H          H       0.61773   0.06234   0.29848
H          H       0.38227   0.93766   0.29848
H          H       0.94832   0.63786   0.44689
H          H       0.05168   0.36214   0.44689
H          H       0.63786   0.05168   0.05311
H          H       0.36214   0.94832   0.05311
H          H       0.98792   0.62525   0.46558
H          H       0.01208   0.37475   0.46558
H          H       0.62525   0.01208   0.03442
H          H       0.37475   0.98792   0.03442
H          H       0.99418   0.65948   0.18504
H          H       0.00582   0.34052   0.18504
H          H       0.65948   0.00582   0.31496
H          H       0.34052   0.99418   0.31496
H          H       0.95460   0.67213   0.16634
H          H       0.04540   0.32787   0.16634
H          H       0.67213   0.04540   0.33366
H          H       0.32787   0.95460   0.33366
H          H       0.96662   0.69384   0.41931
H          H       0.03338   0.30616   0.41931
H          H       0.69384   0.03338   0.08069
H          H       0.30616   0.96662   0.08069
H          H       0.00637   0.68103   0.43756
H          H       0.99363   0.31897   0.43756
H          H       0.68103   0.99363   0.06244
H          H       0.31897   0.00637   0.06244
H          H       0.99112   0.71013   0.05910
H          H       0.00888   0.28987   0.05910
H          H       0.71013   0.00888   0.44090
H          H       0.28987   0.99112   0.44090
C          C       0.50083   0.41796   0.75144
C          C       0.49917   0.58204   0.75144
C          C       0.41796   0.49917   0.74856
C          C       0.58204   0.50083   0.74856
C          C       0.47153   0.43423   0.76536
C          C       0.52847   0.56577   0.76536
C          C       0.43423   0.52847   0.73464
C          C       0.56577   0.47153   0.73464
C          C       0.44379   0.41990   0.79951
C          C       0.55621   0.58010   0.79951
C          C       0.41990   0.55621   0.70049
C          C       0.58010   0.44379   0.70049
C          C       0.42101   0.44224   0.79870
C          C       0.57899   0.55776   0.79870
C          C       0.44224   0.57899   0.70131
C          C       0.55776   0.42101   0.70131
C          C       0.43483   0.47023   0.76420
C          C       0.56517   0.52977   0.76420
C          C       0.47023   0.56517   0.73580
C          C       0.52977   0.43483   0.73580
N          N       0.46608   0.46536   0.74549
N          N       0.53392   0.53464   0.74549
N          N       0.46536   0.53392   0.75450
N          N       0.53464   0.46608   0.75450
C          C       0.50141   0.38148   0.75552
C          C       0.49859   0.61852   0.75552
C          C       0.38148   0.49859   0.74448
C          C       0.61852   0.50141   0.74448
H          H       0.44016   0.39576   0.82500
H          H       0.55984   0.60424   0.82500
H          H       0.39576   0.55984   0.67500
H          H       0.60424   0.44016   0.67500
H          H       0.39690   0.43817   0.82342
H          H       0.60310   0.56183   0.82342
H          H       0.43817   0.60310   0.67657
H          H       0.56183   0.39690   0.67657
C          C       0.48219   0.36255   0.66580
C          C       0.51781   0.63745   0.66580
C          C       0.36255   0.51781   0.83420
C          C       0.63745   0.48219   0.83420
C          C       0.48300   0.32930   0.67059
C          C       0.51700   0.67070   0.67059
C          C       0.32930   0.51700   0.82941
C          C       0.67070   0.48300   0.82941
C          C       0.50333   0.31291   0.76529
C          C       0.49667   0.68709   0.76529
C          C       0.31291   0.49667   0.73471
C          C       0.68709   0.50333   0.73471
C          C       0.52242   0.33179   0.85424
C          C       0.47758   0.66821   0.85424
C          C       0.33179   0.47758   0.64576
C          C       0.66821   0.52242   0.64576
C          C       0.52144   0.36485   0.85012
C          C       0.47856   0.63515   0.85012
C          C       0.36485   0.47856   0.64988
C          C       0.63515   0.52144   0.64988
N          N       0.50556   0.27842   0.77602
N          N       0.49444   0.72158   0.77602
N          N       0.27842   0.49444   0.72398
N          N       0.72158   0.50556   0.72398
C          C       0.49019   0.25663   0.70339
C          C       0.50981   0.74337   0.70339
C          C       0.25663   0.50981   0.79661
C          C       0.74337   0.49019   0.79661
C          C       0.49366   0.22085   0.72093
C          C       0.50634   0.77915   0.72093
C          C       0.22085   0.50634   0.77906
C          C       0.77915   0.49366   0.77906
C          C       0.47445   0.20103   0.63688
C          C       0.52555   0.79897   0.63688
C          C       0.20103   0.52555   0.86311
C          C       0.79897   0.47445   0.86311
C          C       0.47593   0.16809   0.64505
C          C       0.52407   0.83191   0.64505
C          C       0.16809   0.52407   0.85495
C          C       0.83191   0.47593   0.85495
C          C       0.49682   0.15223   0.73838
C          C       0.50318   0.84777   0.73838
C          C       0.15223   0.50318   0.76162
C          C       0.84777   0.49682   0.76162
C          C       0.51638   0.17209   0.82262
C          C       0.48362   0.82791   0.82262
C          C       0.17209   0.48362   0.67738
C          C       0.82791   0.51638   0.67738
C          C       0.51481   0.20537   0.81448
C          C       0.48519   0.79463   0.81448
C          C       0.20537   0.48519   0.68552
C          C       0.79463   0.51481   0.68552
H          H       0.46652   0.37356   0.58952
H          H       0.53348   0.62644   0.58952
H          H       0.37356   0.53348   0.91048
H          H       0.62644   0.46652   0.91048
H          H       0.46774   0.31667   0.59852
H          H       0.53226   0.68333   0.59852
H          H       0.31667   0.53226   0.90148
H          H       0.68333   0.46774   0.90148
H          H       0.53829   0.32077   0.92957
H          H       0.46171   0.67923   0.92957
H          H       0.32077   0.46171   0.57043
H          H       0.67923   0.53829   0.57043
H          H       0.53647   0.37757   0.92324
H          H       0.46353   0.62243   0.92324
H          H       0.37757   0.46353   0.57676
H          H       0.62243   0.53647   0.57676
H          H       0.47330   0.26402   0.62342
H          H       0.52670   0.73598   0.62342
H          H       0.26402   0.52670   0.87658
H          H       0.73598   0.47330   0.87658
H          H       0.45794   0.21117   0.56185
H          H       0.54206   0.78883   0.56185
H          H       0.21117   0.54206   0.93816
H          H       0.78883   0.45794   0.93816
H          H       0.46070   0.15510   0.57422
H          H       0.53930   0.84490   0.57422
H          H       0.15510   0.53930   0.92578
H          H       0.84490   0.46070   0.92578
C          C       0.49782   0.11583   0.74677
C          C       0.50218   0.88417   0.74677
C          C       0.11583   0.50218   0.75323
C          C       0.88417   0.49782   0.75323
H          H       0.53277   0.16199   0.89815
H          H       0.46723   0.83801   0.89815
H          H       0.16199   0.46723   0.60185
H          H       0.83801   0.53277   0.60185
H          H       0.53017   0.21893   0.88249
H          H       0.46983   0.78107   0.88249
H          H       0.21893   0.46983   0.61751
H          H       0.78107   0.53017   0.61751
C          C       0.90081   0.52454   0.70631
C          C       0.09919   0.47546   0.70631
C          C       0.52454   0.09919   0.79369
C          C       0.47546   0.90081   0.79369
C          C       0.93410   0.52496   0.69695
C          C       0.06590   0.47504   0.69695
C          C       0.52496   0.06590   0.80305
C          C       0.47504   0.93410   0.80305
C          C       0.95190   0.49966   0.74038
C          C       0.04810   0.50034   0.74038
C          C       0.49966   0.04810   0.75962
C          C       0.50034   0.95190   0.75962
C          C       0.93630   0.47334   0.79354
C          C       0.06370   0.52666   0.79354
C          C       0.47334   0.06370   0.70646
C          C       0.52666   0.93630   0.70646
C          C       0.90316   0.47231   0.79661
C          C       0.09684   0.52769   0.79661
C          C       0.47231   0.09684   0.70339
C          C       0.52769   0.90316   0.70339
C          C       0.98628   0.50859   0.73801
C          C       0.01372   0.49141   0.73801
C          C       0.50859   0.01372   0.76199
C          C       0.49141   0.98628   0.76199
C          C       0.98393   0.54094   0.68915
C          C       0.01607   0.45906   0.68915
C          C       0.54094   0.01607   0.81085
C          C       0.45906   0.98393   0.81085
N          N       0.95409   0.55067   0.65981
N          N       0.04591   0.44933   0.65981
N          N       0.55067   0.04591   0.84019
N          N       0.44933   0.95409   0.84019
O          O       0.00650   0.55674   0.66080
O          O       0.99350   0.44326   0.66080
O          O       0.55674   0.99350   0.83920
O          O       0.44326   0.00650   0.83920
H          H       0.88767   0.54501   0.68548
H          H       0.11233   0.45499   0.68548
H          H       0.54501   0.11233   0.81452
H          H       0.45499   0.88767   0.81452
H          H       0.94929   0.45391   0.83544
H          H       0.05071   0.54609   0.83544
H          H       0.45391   0.05071   0.66456
H          H       0.54609   0.94929   0.66456
H          H       0.89249   0.45121   0.83489
H          H       0.10751   0.54879   0.83489
H          H       0.45121   0.10751   0.66511
H          H       0.54879   0.89249   0.66511
C          C       0.94858   0.57751   0.56083
C          C       0.05142   0.42249   0.56083
C          C       0.57751   0.05142   0.93917
C          C       0.42249   0.94858   0.93917
C          C       0.91682   0.57761   0.98076
C          C       0.08318   0.42239   0.98076
C          C       0.57761   0.08318   0.51924
C          C       0.42239   0.91682   0.51924
C          C       0.89137   0.59826   0.54532
C          C       0.10863   0.40174   0.54532
C          C       0.59826   0.10863   0.95468
C          C       0.40174   0.89137   0.95468
C          C       0.95711   0.60858   0.63624
C          C       0.04289   0.39142   0.63624
C          C       0.60858   0.04289   0.86376
C          C       0.39142   0.95711   0.86376
C          C       0.96723   0.63348   0.52639
C          C       0.03277   0.36652   0.52639
C          C       0.63348   0.03277   0.97361
C          C       0.36652   0.96723   0.97361
C          C       0.97520   0.66369   0.60550
C          C       0.02480   0.33631   0.60550
C          C       0.66369   0.02480   0.89450
C          C       0.33631   0.97520   0.89450
C          C       0.98546   0.68866   0.99815
C          C       0.01454   0.31134   0.99815
C          C       0.68866   0.01454   0.50185
C          C       0.31134   0.98546   0.50185
H          H       0.96556   0.57456   0.97009
H          H       0.03444   0.42544   0.97009
H          H       0.57456   0.03444   0.52991
H          H       0.42544   0.96556   0.52991
H          H       0.90825   0.55382   0.96467
H          H       0.09175   0.44618   0.96467
H          H       0.55382   0.09175   0.53533
H          H       0.44618   0.90825   0.53533
H          H       0.92056   0.58591   0.86832
H          H       0.07944   0.41409   0.86832
H          H       0.58591   0.07944   0.63168
H          H       0.41409   0.92056   0.63168
H          H       0.88907   0.59545   0.66515
H          H       0.11093   0.40455   0.66515
H          H       0.59545   0.11093   0.83485
H          H       0.40455   0.88907   0.83485
H          H       0.86889   0.59232   0.99369
H          H       0.13111   0.40768   0.99369
H          H       0.59232   0.13111   0.50631
H          H       0.40768   0.86889   0.50631
H          H       0.89625   0.62295   0.52147
H          H       0.10375   0.37705   0.52147
H          H       0.62295   0.10375   0.97853
H          H       0.37705   0.89625   0.97853
H          H       0.97642   0.60487   0.71421
H          H       0.02358   0.39513   0.71421
H          H       0.60487   0.02358   0.78579
H          H       0.39513   0.97642   0.78579
H          H       0.93766   0.61773   0.70152
H          H       0.06234   0.38227   0.70152
H          H       0.61773   0.06234   0.79848
H          H       0.38227   0.93766   0.79848
H          H       0.94832   0.63786   0.94689
H          H       0.05168   0.36214   0.94689
H          H       0.63786   0.05168   0.55311
H          H       0.36214   0.94832   0.55311
H          H       0.98792   0.62525   0.96558
H          H       0.01208   0.37475   0.96558
H          H       0.62525   0.01208   0.53442
H          H       0.37475   0.98792   0.53442
H          H       0.99418   0.65948   0.68504
H          H       0.00582   0.34052   0.68504
H          H       0.65948   0.00582   0.81496
H          H       0.34052   0.99418   0.81496
H          H       0.95460   0.67213   0.66634
H          H       0.04540   0.32787   0.66634
H          H       0.67213   0.04540   0.83366
H          H       0.32787   0.95460   0.83366
H          H       0.96662   0.69384   0.91931
H          H       0.03338   0.30616   0.91931
H          H       0.69384   0.03338   0.58069
H          H       0.30616   0.96662   0.58069
H          H       0.00637   0.68103   0.93756
H          H       0.99363   0.31897   0.93756
H          H       0.68103   0.99363   0.56244
H          H       0.31897   0.00637   0.56244
H          H       0.99112   0.71013   0.55910
H          H       0.00888   0.28987   0.55910
H          H       0.71013   0.00888   0.94090
H          H       0.28987   0.99112   0.94090
