data_crystal

_cell_length_a    28.01210
_cell_length_b    28.01210
_cell_length_c    6.94220
_cell_angle_alpha 90.00000
_cell_angle_beta  90.00000
_cell_angle_gamma 120.00000

_space_group_name_Hall 'P 1'
_space_group_name_H-M_alt 'P 1'

loop_
_symmetry_equiv_pos_as_xyz
 'x,y,z'

loop_
_atom_site_label
_atom_site_type_symbol
_atom_site_fract_x
_atom_site_fract_y
_atom_site_fract_z
N          N       0.25610   0.67990   0.25000
N          N       0.32010   0.57620   0.25000
N          N       0.42380   0.74390   0.25000
C          C       0.22430   0.62440   0.25000
C          C       0.37560   0.59980   0.25000
C          C       0.40020   0.77580   0.25000
N          N       0.24340   0.58870   0.25000
N          N       0.41130   0.65470   0.25000
N          N       0.34530   0.75660   0.25000
C          C       0.29840   0.60970   0.25000
C          C       0.39030   0.68870   0.25000
C          C       0.31130   0.70160   0.25000
C          C       0.43710   0.83630   0.25000
C          C       0.16370   0.60080   0.25000
C          C       0.39920   0.56290   0.25000
C          C       0.49440   0.85940   0.25000
C          C       0.14060   0.63490   0.25000
C          C       0.36510   0.50560   0.25000
C          C       0.52860   0.91600   0.25000
C          C       0.08400   0.61260   0.25000
C          C       0.38740   0.47140   0.25000
C          C       0.50680   0.95140   0.25000
C          C       0.04860   0.55540   0.25000
C          C       0.44460   0.49320   0.25000
C          C       0.44950   0.92810   0.25000
C          C       0.07200   0.52140   0.25000
C          C       0.47860   0.55050   0.25000
C          C       0.41520   0.87160   0.25000
C          C       0.12840   0.54370   0.25000
C          C       0.45630   0.58480   0.25000
C          C       0.46820   0.45670   0.25000
C          C       0.54330   0.01150   0.25000
C          C       0.98850   0.53170   0.25000
N          N       0.52130   0.47770   0.25000
N          N       0.52230   0.04360   0.25000
N          N       0.95640   0.47870   0.25000
C          C       0.54610   0.44450   0.25000
C          C       0.55550   0.10150   0.25000
C          C       0.89840   0.45390   0.25000
C          C       0.51850   0.38670   0.25000
C          C       0.61330   0.13180   0.25000
C          C       0.86820   0.48150   0.25000
C          C       0.54800   0.35920   0.25000
C          C       0.64080   0.18880   0.25000
C          C       0.81120   0.45200   0.25000
C          C       0.60570   0.38800   0.25000
C          C       0.61200   0.21770   0.25000
C          C       0.78230   0.39430   0.25000
C          C       0.63310   0.44550   0.25000
C          C       0.55450   0.18750   0.25000
C          C       0.81250   0.36690   0.25000
C          C       0.60390   0.47320   0.25000
C          C       0.52680   0.13070   0.25000
C          C       0.86930   0.39610   0.25000
C          C       0.63770   0.35890   0.25000
C          C       0.64110   0.27880   0.25000
C          C       0.72120   0.36230   0.25000
N          N       0.61000   0.30330   0.25000
N          N       0.69670   0.30670   0.25000
N          N       0.69330   0.39000   0.25000
H          H       0.51170   0.83210   0.25000
H          H       0.16790   0.67960   0.25000
H          H       0.32040   0.48830   0.25000
H          H       0.57330   0.93350   0.25000
H          H       0.06650   0.63990   0.25000
H          H       0.36010   0.42670   0.25000
H          H       0.43230   0.95550   0.25000
H          H       0.04450   0.47680   0.25000
H          H       0.52320   0.56770   0.25000
H          H       0.37050   0.85360   0.25000
H          H       0.14640   0.51690   0.25000
H          H       0.48310   0.62950   0.25000
H          H       0.43830   0.41140   0.25000
H          H       0.58860   0.02690   0.25000
H          H       0.97310   0.56170   0.25000
H          H       0.47350   0.36270   0.25000
H          H       0.63730   0.11080   0.25000
H          H       0.88920   0.52650   0.25000
H          H       0.52630   0.31420   0.25000
H          H       0.68580   0.21210   0.25000
H          H       0.78790   0.47370   0.25000
H          H       0.67810   0.46830   0.25000
H          H       0.53170   0.20980   0.25000
H          H       0.79020   0.32190   0.25000
H          H       0.62570   0.51820   0.25000
H          H       0.48180   0.10750   0.25000
H          H       0.89250   0.37430   0.25000
N          N       0.33330   0.66550   0.25420
N          N       0.25610   0.67990   0.75000
N          N       0.32010   0.57620   0.75000
N          N       0.42380   0.74390   0.75000
C          C       0.22430   0.62440   0.75000
C          C       0.37560   0.59980   0.75000
C          C       0.40020   0.77580   0.75000
N          N       0.24340   0.58870   0.75000
N          N       0.41130   0.65470   0.75000
N          N       0.34530   0.75660   0.75000
C          C       0.29840   0.60970   0.75000
C          C       0.39030   0.68870   0.75000
C          C       0.31130   0.70160   0.75000
C          C       0.43710   0.83630   0.75000
C          C       0.16370   0.60080   0.75000
C          C       0.39920   0.56290   0.75000
C          C       0.49440   0.85940   0.75000
C          C       0.14060   0.63490   0.75000
C          C       0.36510   0.50560   0.75000
C          C       0.52860   0.91600   0.75000
C          C       0.08400   0.61260   0.75000
C          C       0.38740   0.47140   0.75000
C          C       0.50680   0.95140   0.75000
C          C       0.04860   0.55540   0.75000
C          C       0.44460   0.49320   0.75000
C          C       0.44950   0.92810   0.75000
C          C       0.07200   0.52140   0.75000
C          C       0.47860   0.55050   0.75000
C          C       0.41520   0.87160   0.75000
C          C       0.12840   0.54370   0.75000
C          C       0.45630   0.58480   0.75000
C          C       0.46820   0.45670   0.75000
C          C       0.54330   0.01150   0.75000
C          C       0.98850   0.53170   0.75000
N          N       0.52130   0.47770   0.75000
N          N       0.52230   0.04360   0.75000
N          N       0.95640   0.47870   0.75000
C          C       0.54610   0.44450   0.75000
C          C       0.55550   0.10150   0.75000
C          C       0.89840   0.45390   0.75000
C          C       0.51850   0.38670   0.75000
C          C       0.61330   0.13180   0.75000
C          C       0.86820   0.48150   0.75000
C          C       0.54800   0.35920   0.75000
C          C       0.64080   0.18880   0.75000
C          C       0.81120   0.45200   0.75000
C          C       0.60570   0.38800   0.75000
C          C       0.61200   0.21770   0.75000
C          C       0.78230   0.39430   0.75000
C          C       0.63310   0.44550   0.75000
C          C       0.55450   0.18750   0.75000
C          C       0.81250   0.36690   0.75000
C          C       0.60390   0.47320   0.75000
C          C       0.52680   0.13070   0.75000
C          C       0.86930   0.39610   0.75000
C          C       0.63770   0.35890   0.75000
C          C       0.64110   0.27880   0.75000
C          C       0.72120   0.36230   0.75000
N          N       0.61000   0.30330   0.75000
N          N       0.69670   0.30670   0.75000
N          N       0.69330   0.39000   0.75000
H          H       0.51170   0.83210   0.75000
H          H       0.16790   0.67960   0.75000
H          H       0.32040   0.48830   0.75000
H          H       0.57330   0.93350   0.75000
H          H       0.06650   0.63990   0.75000
H          H       0.36010   0.42670   0.75000
H          H       0.43230   0.95550   0.75000
H          H       0.04450   0.47680   0.75000
H          H       0.52320   0.56770   0.75000
H          H       0.37050   0.85360   0.75000
H          H       0.14640   0.51690   0.75000
H          H       0.48310   0.62950   0.75000
H          H       0.43830   0.41140   0.75000
H          H       0.58860   0.02690   0.75000
H          H       0.97310   0.56170   0.75000
H          H       0.47350   0.36270   0.75000
H          H       0.63730   0.11080   0.75000
H          H       0.88920   0.52650   0.75000
H          H       0.52630   0.31420   0.75000
H          H       0.68580   0.21210   0.75000
H          H       0.78790   0.47370   0.75000
H          H       0.67810   0.46830   0.75000
H          H       0.53170   0.20980   0.75000
H          H       0.79020   0.32190   0.75000
H          H       0.62570   0.51820   0.75000
H          H       0.48180   0.10750   0.75000
H          H       0.89250   0.37430   0.75000
N          N       0.33330   0.66550   0.75420
