data_crystal

_cell_length_a    28.25670
_cell_length_b    28.25670
_cell_length_c    6.94020
_cell_angle_alpha 90.00000
_cell_angle_beta  90.00000
_cell_angle_gamma 120.00000

_space_group_name_Hall 'P 1'
_space_group_name_H-M_alt 'P 1'

loop_
_symmetry_equiv_pos_as_xyz
 'x,y,z'

loop_
_atom_site_label
_atom_site_type_symbol
_atom_site_fract_x
_atom_site_fract_y
_atom_site_fract_z
N          N       0.25648   0.67934   0.25000
N          N       0.32066   0.57714   0.25000
N          N       0.42286   0.74352   0.25000
C          C       0.22509   0.62428   0.25000
C          C       0.37572   0.60081   0.25000
C          C       0.39919   0.77491   0.25000
N          N       0.24433   0.58907   0.25000
N          N       0.41093   0.65526   0.25000
N          N       0.34474   0.75567   0.25000
C          C       0.29896   0.61015   0.25000
C          C       0.38985   0.68881   0.25000
C          C       0.31119   0.70104   0.25000
C          C       0.43565   0.83498   0.25000
C          C       0.16502   0.60067   0.25000
C          C       0.39933   0.56435   0.25000
C          C       0.49246   0.85807   0.25000
C          C       0.14193   0.63439   0.25000
C          C       0.36561   0.50754   0.25000
C          C       0.52632   0.91415   0.25000
C          C       0.08585   0.61217   0.25000
C          C       0.38783   0.47368   0.25000
C          C       0.50471   0.94924   0.25000
C          C       0.05076   0.55547   0.25000
C          C       0.44453   0.49529   0.25000
C          C       0.44781   0.92596   0.25000
C          C       0.07404   0.52185   0.25000
C          C       0.47815   0.55219   0.25000
C          C       0.41395   0.86995   0.25000
C          C       0.13005   0.54400   0.25000
C          C       0.45600   0.58605   0.25000
C          C       0.46795   0.45908   0.25000
C          C       0.54092   0.00887   0.25000
C          C       0.99113   0.53205   0.25000
N          N       0.52051   0.47972   0.25000
N          N       0.52028   0.04079   0.25000
N          N       0.95921   0.47949   0.25000
C          C       0.54500   0.44674   0.25000
C          C       0.55326   0.09826   0.25000
C          C       0.90174   0.45500   0.25000
C          C       0.51803   0.38948   0.25000
C          C       0.61052   0.12855   0.25000
C          C       0.87145   0.48197   0.25000
C          C       0.54741   0.36233   0.25000
C          C       0.63767   0.18508   0.25000
C          C       0.81492   0.45259   0.25000
C          C       0.60473   0.39015   0.25000
C          C       0.60985   0.21458   0.25000
C          C       0.78542   0.39527   0.25000
C          C       0.63114   0.44733   0.25000
C          C       0.55267   0.18381   0.25000
C          C       0.81619   0.36886   0.25000
C          C       0.60223   0.47478   0.25000
C          C       0.52522   0.12745   0.25000
C          C       0.87255   0.39777   0.25000
C          C       0.63651   0.36086   0.25000
C          C       0.63914   0.27565   0.25000
C          C       0.72435   0.36349   0.25000
C          C       0.61013   0.30381   0.25000
C          C       0.69619   0.30632   0.25000
C          C       0.69368   0.38987   0.25000
H          H       0.50974   0.83107   0.25000
H          H       0.16893   0.67867   0.25000
H          H       0.32133   0.49026   0.25000
H          H       0.57067   0.93150   0.25000
H          H       0.06850   0.63917   0.25000
H          H       0.36083   0.42933   0.25000
H          H       0.43068   0.95309   0.25000
H          H       0.04691   0.47759   0.25000
H          H       0.52241   0.56932   0.25000
H          H       0.36959   0.85212   0.25000
H          H       0.14788   0.51747   0.25000
H          H       0.48253   0.63041   0.25000
H          H       0.43814   0.41413   0.25000
H          H       0.58587   0.02401   0.25000
H          H       0.97599   0.56186   0.25000
H          H       0.47344   0.36544   0.25000
H          H       0.63456   0.10800   0.25000
H          H       0.89200   0.52656   0.25000
H          H       0.52443   0.31771   0.25000
H          H       0.68229   0.20672   0.25000
H          H       0.79328   0.47557   0.25000
H          H       0.67566   0.47156   0.25000
H          H       0.52844   0.20410   0.25000
H          H       0.79590   0.32434   0.25000
H          H       0.62421   0.51939   0.25000
H          H       0.48061   0.10482   0.25000
H          H       0.89518   0.37579   0.25000
H          H       0.56562   0.28069   0.25000
H          H       0.71931   0.28493   0.25000
H          H       0.71507   0.43438   0.25000
N          N       0.33333   0.66667   0.25000
N          N       0.25648   0.67934   0.75000
N          N       0.32066   0.57714   0.75000
N          N       0.42286   0.74352   0.75000
C          C       0.22509   0.62428   0.75000
C          C       0.37572   0.60081   0.75000
C          C       0.39919   0.77491   0.75000
N          N       0.24433   0.58907   0.75000
N          N       0.41093   0.65526   0.75000
N          N       0.34474   0.75567   0.75000
C          C       0.29896   0.61015   0.75000
C          C       0.38985   0.68881   0.75000
C          C       0.31119   0.70104   0.75000
C          C       0.43565   0.83498   0.75000
C          C       0.16502   0.60067   0.75000
C          C       0.39933   0.56435   0.75000
C          C       0.49246   0.85807   0.75000
C          C       0.14193   0.63439   0.75000
C          C       0.36561   0.50754   0.75000
C          C       0.52632   0.91415   0.75000
C          C       0.08585   0.61217   0.75000
C          C       0.38783   0.47368   0.75000
C          C       0.50471   0.94924   0.75000
C          C       0.05076   0.55547   0.75000
C          C       0.44453   0.49529   0.75000
C          C       0.44781   0.92596   0.75000
C          C       0.07404   0.52185   0.75000
C          C       0.47815   0.55219   0.75000
C          C       0.41395   0.86995   0.75000
C          C       0.13005   0.54400   0.75000
C          C       0.45600   0.58605   0.75000
C          C       0.46795   0.45908   0.75000
C          C       0.54092   0.00887   0.75000
C          C       0.99113   0.53205   0.75000
N          N       0.52051   0.47972   0.75000
N          N       0.52028   0.04079   0.75000
N          N       0.95921   0.47949   0.75000
C          C       0.54500   0.44674   0.75000
C          C       0.55326   0.09826   0.75000
C          C       0.90174   0.45500   0.75000
C          C       0.51803   0.38948   0.75000
C          C       0.61052   0.12855   0.75000
C          C       0.87145   0.48197   0.75000
C          C       0.54741   0.36233   0.75000
C          C       0.63767   0.18508   0.75000
C          C       0.81492   0.45259   0.75000
C          C       0.60473   0.39015   0.75000
C          C       0.60985   0.21458   0.75000
C          C       0.78542   0.39527   0.75000
C          C       0.63114   0.44733   0.75000
C          C       0.55267   0.18381   0.75000
C          C       0.81619   0.36886   0.75000
C          C       0.60223   0.47478   0.75000
C          C       0.52522   0.12745   0.75000
C          C       0.87255   0.39777   0.75000
C          C       0.63651   0.36086   0.75000
C          C       0.63914   0.27565   0.75000
C          C       0.72435   0.36349   0.75000
C          C       0.61013   0.30381   0.75000
C          C       0.69619   0.30632   0.75000
C          C       0.69368   0.38987   0.75000
H          H       0.50974   0.83107   0.75000
H          H       0.16893   0.67867   0.75000
H          H       0.32133   0.49026   0.75000
H          H       0.57067   0.93150   0.75000
H          H       0.06850   0.63917   0.75000
H          H       0.36083   0.42933   0.75000
H          H       0.43068   0.95309   0.75000
H          H       0.04691   0.47759   0.75000
H          H       0.52241   0.56932   0.75000
H          H       0.36959   0.85212   0.75000
H          H       0.14788   0.51747   0.75000
H          H       0.48253   0.63041   0.75000
H          H       0.43814   0.41413   0.75000
H          H       0.58587   0.02401   0.75000
H          H       0.97599   0.56186   0.75000
H          H       0.47344   0.36544   0.75000
H          H       0.63456   0.10800   0.75000
H          H       0.89200   0.52656   0.75000
H          H       0.52443   0.31771   0.75000
H          H       0.68229   0.20672   0.75000
H          H       0.79328   0.47557   0.75000
H          H       0.67566   0.47156   0.75000
H          H       0.52844   0.20410   0.75000
H          H       0.79590   0.32434   0.75000
H          H       0.62421   0.51939   0.75000
H          H       0.48061   0.10482   0.75000
H          H       0.89518   0.37579   0.75000
H          H       0.56562   0.28069   0.75000
H          H       0.71931   0.28493   0.75000
H          H       0.71507   0.43438   0.75000
N          N       0.33333   0.66667   0.75000
