data_crystal

_cell_length_a    28.91000
_cell_length_b    28.91000
_cell_length_c    8.40000
_cell_angle_alpha 90.00000
_cell_angle_beta  90.00000
_cell_angle_gamma 120.00000

_space_group_name_Hall 'P 1'
_space_group_name_H-M_alt 'P 1'

loop_
_symmetry_equiv_pos_as_xyz
 'x,y,z'

loop_
_atom_site_label
_atom_site_type_symbol
_atom_site_fract_x
_atom_site_fract_y
_atom_site_fract_z
C          C       0.10824   0.27058   0.38563
C          C       0.72942   0.83766   0.38563
C          C       0.16234   0.89176   0.38563
C          C       0.16316   0.28895   0.37195
C          C       0.71105   0.87421   0.37195
C          C       0.12579   0.83684   0.37195
C          C       0.20207   0.33831   0.43582
C          C       0.66169   0.86376   0.43582
C          C       0.13624   0.79793   0.43582
C          C       0.18512   0.37036   0.01417
C          C       0.62964   0.81476   0.01417
C          C       0.18524   0.81488   0.01417
C          C       0.13025   0.35135   0.03397
C          C       0.64865   0.77890   0.03397
C          C       0.22110   0.86975   0.03397
C          C       0.09141   0.30137   0.47242
C          C       0.69863   0.79004   0.47242
C          C       0.20996   0.90859   0.47242
C          C       0.22480   0.42425   0.07440
C          C       0.57575   0.80055   0.07440
C          C       0.19945   0.77520   0.07440
O          O       0.26757   0.43209   0.12601
O          O       0.56791   0.83548   0.12601
O          O       0.16452   0.73243   0.12601
C          C       0.06884   0.21716   0.31857
C          C       0.78284   0.85168   0.31857
C          C       0.14832   0.93116   0.31857
O          O       0.02366   0.19292   0.37260
O          O       0.80708   0.83074   0.37260
O          O       0.16926   0.97634   0.37260
N          N       0.04925   0.13993   0.16202
N          N       0.86007   0.90932   0.16202
N          N       0.09068   0.95075   0.16202
N          N       0.08288   0.19386   0.20059
N          N       0.80614   0.88902   0.20059
N          N       0.11098   0.91712   0.20059
N          N       0.25546   0.51795   0.10159
N          N       0.48205   0.73751   0.10159
N          N       0.26249   0.74454   0.10159
N          N       0.21466   0.46566   0.06843
N          N       0.53434   0.74900   0.06843
N          N       0.25100   0.78534   0.06843
C          C       0.06624   0.11369   0.07878
C          C       0.88631   0.95255   0.07878
C          C       0.04745   0.93376   0.07878
C          C       0.03216   0.05584   0.05688
C          C       0.94416   0.97632   0.05688
C          C       0.02368   0.96784   0.05688
C          C       0.97634   0.03200   0.05513
C          C       0.96800   0.94434   0.05513
C          C       0.05566   0.02366   0.05513
C          C       0.24688   0.55788   0.10115
C          C       0.44212   0.68900   0.10115
C          C       0.31100   0.75312   0.10115
C          C       0.29134   0.61328   0.11795
C          C       0.38672   0.67806   0.11795
C          C       0.32194   0.70866   0.11795
C          C       0.34474   0.62500   0.11896
C          C       0.37500   0.71974   0.11896
C          C       0.28026   0.65526   0.11896
O          O       0.03610   0.27997   0.49700
O          O       0.72003   0.75613   0.49700
O          O       0.24387   0.96390   0.49700
C          C       0.01741   0.31081   0.07841
C          C       0.68919   0.70660   0.07841
C          C       0.29340   0.98259   0.07841
C          C       0.95685   0.27711   0.09487
C          C       0.72289   0.67974   0.09487
C          C       0.32026   0.04315   0.09487
C          C       0.93260   0.30990   0.15910
C          C       0.69010   0.62270   0.15910
C          C       0.37730   0.06740   0.15910
N          N       0.87433   0.27755   0.16367
N          N       0.72245   0.59678   0.16367
N          N       0.40322   0.12567   0.16367
C          C       0.83924   0.28751   0.08757
C          C       0.71249   0.55173   0.08757
C          C       0.44827   0.16076   0.08757
C          C       0.84466   0.23231   0.24604
C          C       0.76769   0.61235   0.24604
C          C       0.38765   0.15534   0.24604
C          C       0.79176   0.21551   0.21690
C          C       0.78449   0.57625   0.21690
C          C       0.42375   0.20824   0.21690
N          N       0.78806   0.25010   0.11731
N          N       0.74990   0.53796   0.11731
N          N       0.46204   0.21194   0.11731
O          O       0.25767   0.35749   0.42316
O          O       0.64251   0.90018   0.42316
O          O       0.09982   0.74233   0.42316
C          C       0.27635   0.32792   0.33336
C          C       0.67208   0.94843   0.33336
C          C       0.05157   0.72365   0.33336
C          C       0.27104   0.27998   0.42818
C          C       0.72002   0.99106   0.42818
C          C       0.00894   0.72896   0.42818
C          C       0.27165   0.23770   0.32044
C          C       0.76230   0.03395   0.32044
C          C       0.96605   0.72835   0.32044
N          N       0.26347   0.19148   0.41315
N          N       0.80852   0.07199   0.41315
N          N       0.92801   0.73653   0.41315
C          C       0.21833   0.14402   0.42417
C          C       0.85598   0.07431   0.42417
C          C       0.92569   0.78167   0.42417
C          C       0.30014   0.18689   0.49961
C          C       0.81311   0.11325   0.49961
C          C       0.88675   0.69986   0.49961
N          N       0.28005   0.13829   0.06732
N          N       0.86171   0.14176   0.06732
N          N       0.85824   0.71995   0.06732
C          C       0.22863   0.11153   0.01961
C          C       0.88847   0.11710   0.01961
C          C       0.88290   0.77137   0.01961
H          H       0.17548   0.26349   0.31610
H          H       0.73651   0.91199   0.31610
H          H       0.08801   0.82452   0.31610
H          H       0.11823   0.37542   0.10104
H          H       0.62458   0.74281   0.10104
H          H       0.25719   0.88177   0.10104
H          H       0.11955   0.21494   0.14247
H          H       0.78506   0.90461   0.14247
H          H       0.09539   0.88045   0.14247
H          H       0.17813   0.45944   0.02484
H          H       0.54056   0.71869   0.02484
H          H       0.28131   0.82187   0.02484
H          H       0.10766   0.13295   0.04164
H          H       0.86705   0.97471   0.04164
H          H       0.02529   0.89234   0.04164
H          H       0.95796   0.05672   0.06068
H          H       0.94328   0.90124   0.06068
H          H       0.09876   0.04204   0.06068
H          H       0.20690   0.55092   0.08012
H          H       0.44908   0.65598   0.08012
H          H       0.34402   0.79310   0.08012
H          H       0.35379   0.59290   0.11438
H          H       0.40710   0.76089   0.11438
H          H       0.23911   0.64621   0.11438
H          H       0.02812   0.34757   0.00891
H          H       0.65243   0.68055   0.00891
H          H       0.31945   0.97188   0.00891
H          H       0.03502   0.32149   0.19956
H          H       0.67851   0.71353   0.19956
H          H       0.28647   0.96498   0.19956
H          H       0.94722   0.24321   0.17639
H          H       0.75679   0.70401   0.17639
H          H       0.29599   0.05278   0.17639
H          H       0.93922   0.26040   0.47697
H          H       0.73960   0.67882   0.47697
H          H       0.32118   0.06078   0.47697
H          H       0.94469   0.34533   0.08166
H          H       0.65467   0.59936   0.08166
H          H       0.40064   0.05531   0.08166
H          H       0.94790   0.32458   0.28063
H          H       0.67542   0.62332   0.28063
H          H       0.37668   0.05210   0.28063
H          H       0.85058   0.32148   0.01036
H          H       0.67852   0.52910   0.01036
H          H       0.47090   0.14942   0.01036
H          H       0.86012   0.21286   0.32118
H          H       0.78714   0.64726   0.32118
H          H       0.35274   0.13988   0.32118
H          H       0.75787   0.18016   0.26545
H          H       0.81984   0.57771   0.26545
H          H       0.42229   0.24213   0.26545
H          H       0.31930   0.35486   0.30641
H          H       0.64514   0.96444   0.30641
H          H       0.03556   0.68070   0.30641
H          H       0.25581   0.31633   0.21701
H          H       0.68367   0.93948   0.21701
H          H       0.06052   0.74419   0.21701
H          H       0.23307   0.26081   0.49585
H          H       0.73919   0.97226   0.49585
H          H       0.02774   0.76693   0.49585
H          H       0.30463   0.29459   0.01400
H          H       0.70541   0.01004   0.01400
H          H       0.98996   0.69537   0.01400
H          H       0.31045   0.25496   0.25691
H          H       0.74504   0.05549   0.25691
H          H       0.94451   0.68955   0.25691
H          H       0.23903   0.22443   0.23170
H          H       0.77557   0.01460   0.23170
H          H       0.98540   0.76097   0.23170
H          H       0.18089   0.13370   0.36661
H          H       0.86630   0.04719   0.36661
H          H       0.95281   0.81911   0.36661
H          H       0.34120   0.21842   0.01299
H          H       0.78158   0.12278   0.01299
H          H       0.87722   0.65880   0.01299
H          H       0.20048   0.07075   0.05242
H          H       0.92925   0.12973   0.05242
H          H       0.87027   0.79952   0.05242
C          C       0.10824   0.27058   0.88563
C          C       0.72942   0.83766   0.88563
C          C       0.16234   0.89176   0.88563
C          C       0.16316   0.28895   0.87195
C          C       0.71105   0.87421   0.87195
C          C       0.12579   0.83684   0.87195
C          C       0.20207   0.33831   0.93582
C          C       0.66169   0.86376   0.93582
C          C       0.13624   0.79793   0.93582
C          C       0.18512   0.37036   0.51416
C          C       0.62964   0.81476   0.51416
C          C       0.18524   0.81488   0.51416
C          C       0.13025   0.35135   0.53397
C          C       0.64865   0.77890   0.53397
C          C       0.22110   0.86975   0.53397
C          C       0.09141   0.30137   0.97242
C          C       0.69863   0.79004   0.97242
C          C       0.20996   0.90859   0.97242
C          C       0.22480   0.42425   0.57439
C          C       0.57575   0.80055   0.57439
C          C       0.19945   0.77520   0.57439
O          O       0.26757   0.43209   0.62601
O          O       0.56791   0.83548   0.62601
O          O       0.16452   0.73243   0.62601
C          C       0.06884   0.21716   0.81857
C          C       0.78284   0.85168   0.81857
C          C       0.14832   0.93116   0.81857
O          O       0.02366   0.19292   0.87260
O          O       0.80708   0.83074   0.87260
O          O       0.16926   0.97634   0.87260
N          N       0.04925   0.13993   0.66202
N          N       0.86007   0.90932   0.66202
N          N       0.09068   0.95075   0.66202
N          N       0.08288   0.19386   0.70059
N          N       0.80614   0.88902   0.70059
N          N       0.11098   0.91712   0.70059
N          N       0.25546   0.51795   0.60159
N          N       0.48205   0.73751   0.60159
N          N       0.26249   0.74454   0.60159
N          N       0.21466   0.46566   0.56844
N          N       0.53434   0.74900   0.56844
N          N       0.25100   0.78534   0.56844
C          C       0.06624   0.11369   0.57878
C          C       0.88631   0.95255   0.57878
C          C       0.04745   0.93376   0.57878
C          C       0.03216   0.05584   0.55688
C          C       0.94416   0.97632   0.55688
C          C       0.02368   0.96784   0.55688
C          C       0.97634   0.03200   0.55514
C          C       0.96800   0.94434   0.55514
C          C       0.05566   0.02366   0.55514
C          C       0.24688   0.55788   0.60115
C          C       0.44212   0.68900   0.60115
C          C       0.31100   0.75312   0.60115
C          C       0.29134   0.61328   0.61795
C          C       0.38672   0.67806   0.61795
C          C       0.32194   0.70866   0.61795
C          C       0.34474   0.62500   0.61896
C          C       0.37500   0.71974   0.61896
C          C       0.28026   0.65526   0.61896
O          O       0.03610   0.27997   0.99699
O          O       0.72003   0.75613   0.99699
O          O       0.24387   0.96390   0.99699
C          C       0.01741   0.31081   0.57841
C          C       0.68919   0.70660   0.57841
C          C       0.29340   0.98259   0.57841
C          C       0.95685   0.27711   0.59487
C          C       0.72289   0.67974   0.59487
C          C       0.32026   0.04315   0.59487
C          C       0.93260   0.30990   0.65911
C          C       0.69010   0.62270   0.65911
C          C       0.37730   0.06740   0.65911
N          N       0.87433   0.27755   0.66367
N          N       0.72245   0.59678   0.66367
N          N       0.40322   0.12567   0.66367
C          C       0.83924   0.28751   0.58757
C          C       0.71249   0.55173   0.58757
C          C       0.44827   0.16076   0.58757
C          C       0.84466   0.23231   0.74604
C          C       0.76769   0.61235   0.74604
C          C       0.38765   0.15534   0.74604
C          C       0.79176   0.21551   0.71690
C          C       0.78449   0.57625   0.71690
C          C       0.42375   0.20824   0.71690
N          N       0.78806   0.25010   0.61730
N          N       0.74990   0.53796   0.61730
N          N       0.46204   0.21194   0.61730
O          O       0.25767   0.35749   0.92316
O          O       0.64251   0.90018   0.92316
O          O       0.09982   0.74233   0.92316
C          C       0.27635   0.32792   0.83336
C          C       0.67208   0.94843   0.83336
C          C       0.05157   0.72365   0.83336
C          C       0.27104   0.27998   0.92818
C          C       0.72002   0.99106   0.92818
C          C       0.00894   0.72896   0.92818
C          C       0.27165   0.23770   0.82044
C          C       0.76230   0.03395   0.82044
C          C       0.96605   0.72835   0.82044
N          N       0.26347   0.19148   0.91315
N          N       0.80852   0.07199   0.91315
N          N       0.92801   0.73653   0.91315
C          C       0.21833   0.14402   0.92417
C          C       0.85598   0.07431   0.92417
C          C       0.92569   0.78167   0.92417
C          C       0.30014   0.18689   0.99961
C          C       0.81311   0.11325   0.99961
C          C       0.88675   0.69986   0.99961
N          N       0.28005   0.13829   0.56732
N          N       0.86171   0.14176   0.56732
N          N       0.85824   0.71995   0.56732
C          C       0.22863   0.11153   0.51960
C          C       0.88847   0.11710   0.51960
C          C       0.88290   0.77137   0.51960
H          H       0.17548   0.26349   0.81610
H          H       0.73651   0.91199   0.81610
H          H       0.08801   0.82452   0.81610
H          H       0.11823   0.37542   0.60104
H          H       0.62458   0.74281   0.60104
H          H       0.25719   0.88177   0.60104
H          H       0.11955   0.21494   0.64246
H          H       0.78506   0.90461   0.64246
H          H       0.09539   0.88045   0.64246
H          H       0.17813   0.45944   0.52485
H          H       0.54056   0.71869   0.52485
H          H       0.28131   0.82187   0.52485
H          H       0.10766   0.13295   0.54165
H          H       0.86705   0.97471   0.54165
H          H       0.02529   0.89234   0.54165
H          H       0.95796   0.05672   0.56068
H          H       0.94328   0.90124   0.56068
H          H       0.09876   0.04204   0.56068
H          H       0.20690   0.55092   0.58011
H          H       0.44908   0.65598   0.58011
H          H       0.34402   0.79310   0.58011
H          H       0.35379   0.59290   0.61438
H          H       0.40710   0.76089   0.61438
H          H       0.23911   0.64621   0.61438
H          H       0.02812   0.34757   0.50892
H          H       0.65243   0.68055   0.50892
H          H       0.31945   0.97188   0.50892
H          H       0.03502   0.32149   0.69956
H          H       0.67851   0.71353   0.69956
H          H       0.28647   0.96498   0.69956
H          H       0.94722   0.24321   0.67639
H          H       0.75679   0.70401   0.67639
H          H       0.29599   0.05278   0.67639
H          H       0.93922   0.26040   0.97697
H          H       0.73960   0.67882   0.97697
H          H       0.32118   0.06078   0.97697
H          H       0.94469   0.34533   0.58166
H          H       0.65467   0.59936   0.58166
H          H       0.40064   0.05531   0.58166
H          H       0.94790   0.32458   0.78062
H          H       0.67542   0.62332   0.78062
H          H       0.37668   0.05210   0.78062
H          H       0.85058   0.32148   0.51036
H          H       0.67852   0.52910   0.51036
H          H       0.47090   0.14942   0.51036
H          H       0.86012   0.21286   0.82119
H          H       0.78714   0.64726   0.82119
H          H       0.35274   0.13988   0.82119
H          H       0.75787   0.18016   0.76545
H          H       0.81984   0.57771   0.76545
H          H       0.42229   0.24213   0.76545
H          H       0.31930   0.35486   0.80641
H          H       0.64514   0.96444   0.80641
H          H       0.03556   0.68070   0.80641
H          H       0.25581   0.31633   0.71701
H          H       0.68367   0.93948   0.71701
H          H       0.06052   0.74419   0.71701
H          H       0.23307   0.26081   0.99584
H          H       0.73919   0.97226   0.99584
H          H       0.02774   0.76693   0.99584
H          H       0.30463   0.29459   0.51400
H          H       0.70541   0.01004   0.51400
H          H       0.98996   0.69537   0.51400
H          H       0.31045   0.25496   0.75691
H          H       0.74504   0.05549   0.75691
H          H       0.94451   0.68955   0.75691
H          H       0.23903   0.22443   0.73170
H          H       0.77557   0.01460   0.73170
H          H       0.98540   0.76097   0.73170
H          H       0.18089   0.13370   0.86661
H          H       0.86630   0.04719   0.86661
H          H       0.95281   0.81911   0.86661
H          H       0.34120   0.21842   0.51299
H          H       0.78158   0.12278   0.51299
H          H       0.87722   0.65880   0.51299
H          H       0.20048   0.07075   0.55242
H          H       0.92925   0.12973   0.55242
H          H       0.87027   0.79952   0.55242
