data_crystal

_cell_length_a    25.44510
_cell_length_b    20.04700
_cell_length_c    10.91520
_cell_angle_alpha 90.00000
_cell_angle_beta  90.00000
_cell_angle_gamma 90.00000

_space_group_name_Hall 'P 1'
_space_group_name_H-M_alt 'P 1'

loop_
_symmetry_equiv_pos_as_xyz
 'x,y,z'

loop_
_atom_site_label
_atom_site_type_symbol
_atom_site_fract_x
_atom_site_fract_y
_atom_site_fract_z
C          C       0.61715   0.94379   0.24875
C          C       0.38285   0.05621   0.24875
C          C       0.38285   0.94379   0.25126
C          C       0.61715   0.05621   0.25126
C          C       0.59830   0.87458   0.24841
C          C       0.40170   0.12542   0.24841
C          C       0.40170   0.87458   0.25159
C          C       0.59830   0.12542   0.25159
C          C       0.54420   0.84988   0.24899
C          C       0.45580   0.15012   0.24899
C          C       0.45580   0.84988   0.25101
C          C       0.54420   0.15012   0.25101
C          C       0.64668   0.77899   0.15033
C          C       0.35332   0.22101   0.15033
C          C       0.35332   0.77899   0.34967
C          C       0.64668   0.22101   0.34967
H          H       0.61948   0.78015   0.07404
H          H       0.38052   0.21985   0.07404
H          H       0.38052   0.78015   0.42595
H          H       0.61948   0.21985   0.42595
C          C       0.68921   0.73466   0.14758
C          C       0.31079   0.26534   0.14758
C          C       0.31079   0.73466   0.35242
C          C       0.68921   0.26534   0.35242
H          H       0.69415   0.70194   0.06950
H          H       0.30585   0.29806   0.06950
H          H       0.30585   0.70194   0.43051
H          H       0.69415   0.29806   0.43051
C          C       0.72621   0.73389   0.24271
C          C       0.27379   0.26611   0.24271
C          C       0.27379   0.73389   0.25729
C          C       0.72621   0.26611   0.25729
C          C       0.71868   0.77698   0.34353
C          C       0.28132   0.22302   0.34353
C          C       0.28132   0.77698   0.15647
C          C       0.71868   0.22302   0.15647
H          H       0.74625   0.77999   0.41834
H          H       0.25375   0.22001   0.41834
H          H       0.25375   0.77999   0.08166
H          H       0.74625   0.22001   0.08166
C          C       0.67560   0.81989   0.34752
C          C       0.32440   0.18011   0.34752
C          C       0.32440   0.81989   0.15248
C          C       0.67560   0.18011   0.15248
H          H       0.67126   0.85341   0.42473
H          H       0.32874   0.14659   0.42473
H          H       0.32874   0.85341   0.07527
H          H       0.67126   0.14659   0.07527
C          C       0.64011   0.82276   0.24957
C          C       0.35989   0.17724   0.24957
C          C       0.35989   0.82276   0.25043
C          C       0.64011   0.17724   0.25043
C          C       0.80737   0.68228   0.31399
C          C       0.19263   0.31772   0.31399
C          C       0.19263   0.68228   0.18601
C          C       0.80737   0.31772   0.18601
H          H       0.80317   0.70377   0.40415
H          H       0.19683   0.29623   0.40415
H          H       0.19683   0.70377   0.09585
H          H       0.80317   0.29623   0.09585
N          N       0.77218   0.69237   0.22964
N          N       0.22782   0.30763   0.22964
N          N       0.22782   0.69237   0.27036
N          N       0.77218   0.30763   0.27036
C          C       0.66928   0.96521   0.24810
C          C       0.33072   0.03479   0.24810
C          C       0.33072   0.96521   0.25189
C          C       0.66928   0.03479   0.25189
C          C       0.52752   0.78366   0.25000
C          C       0.47248   0.21634   0.25000
C          C       0.47248   0.78366   0.25000
C          C       0.52752   0.21634   0.25000
C          C       0.86276   0.60338   0.18665
C          C       0.13724   0.39662   0.18665
C          C       0.13724   0.60338   0.31335
C          C       0.86276   0.39662   0.31335
H          H       0.83166   0.59812   0.11961
H          H       0.16834   0.40188   0.11961
H          H       0.16834   0.59812   0.38038
H          H       0.83166   0.40188   0.38038
C          C       0.90981   0.56772   0.17068
C          C       0.09019   0.43228   0.17068
C          C       0.09019   0.56772   0.32932
C          C       0.90981   0.43228   0.32932
H          H       0.91435   0.53557   0.09177
H          H       0.08565   0.46443   0.09177
H          H       0.08565   0.53557   0.40823
H          H       0.91435   0.46443   0.40823
C          C       0.95045   0.57319   0.25759
C          C       0.04955   0.42681   0.25759
C          C       0.04955   0.57319   0.24241
C          C       0.95045   0.42681   0.24241
C          C       0.92352   0.59426   0.26163
C          C       0.07648   0.40574   0.26163
C          C       0.07648   0.59426   0.23837
C          C       0.92352   0.40574   0.23837
C          C       0.94402   0.61650   0.35668
C          C       0.05598   0.38350   0.35668
C          C       0.05598   0.61650   0.14332
C          C       0.94402   0.38350   0.14332
H          H       0.97510   0.62271   0.42206
H          H       0.02490   0.37729   0.42206
H          H       0.02490   0.62271   0.07794
H          H       0.97510   0.37729   0.07794
C          C       0.89728   0.65107   0.37389
C          C       0.10272   0.34893   0.37389
C          C       0.10272   0.65107   0.12611
C          C       0.89728   0.34893   0.12611
C          C       0.85604   0.64460   0.28993
C          C       0.14396   0.35540   0.28993
C          C       0.14396   0.64460   0.21007
C          C       0.85604   0.35540   0.21007
H          H       0.55199   0.73955   0.25083
H          H       0.44801   0.26045   0.25083
H          H       0.44801   0.73955   0.24917
H          H       0.55199   0.26045   0.24917
H          H       0.29577   0.06540   0.24513
H          H       0.70423   0.93460   0.24513
H          H       0.70423   0.06540   0.25487
H          H       0.29577   0.93460   0.25487
H          H       0.89346   0.68328   0.45314
H          H       0.10654   0.31672   0.45314
H          H       0.10654   0.68328   0.04686
H          H       0.89346   0.31672   0.04686
N          N       0.50000   0.11344   0.25000
N          N       0.50000   0.88656   0.25000
H          H       0.50000   0.93442   0.25000
H          H       0.50000   0.06558   0.25000
N          N       0.41188   0.00000   0.25000
N          N       0.58812   0.00000   0.25000
C          C       0.61715   0.94379   0.74874
C          C       0.38285   0.05621   0.74874
C          C       0.38285   0.94379   0.75126
C          C       0.61715   0.05621   0.75126
C          C       0.59830   0.87458   0.74841
C          C       0.40170   0.12542   0.74841
C          C       0.40170   0.87458   0.75159
C          C       0.59830   0.12542   0.75159
C          C       0.54420   0.84988   0.74899
C          C       0.45580   0.15012   0.74899
C          C       0.45580   0.84988   0.75101
C          C       0.54420   0.15012   0.75101
C          C       0.64668   0.77899   0.65033
C          C       0.35332   0.22101   0.65033
C          C       0.35332   0.77899   0.84966
C          C       0.64668   0.22101   0.84966
H          H       0.61948   0.78015   0.57405
H          H       0.38052   0.21985   0.57405
H          H       0.38052   0.78015   0.92595
H          H       0.61948   0.21985   0.92595
C          C       0.68921   0.73466   0.64758
C          C       0.31079   0.26534   0.64758
C          C       0.31079   0.73466   0.85242
C          C       0.68921   0.26534   0.85242
H          H       0.69415   0.70194   0.56950
H          H       0.30585   0.29806   0.56950
H          H       0.30585   0.70194   0.93051
H          H       0.69415   0.29806   0.93051
C          C       0.72621   0.73389   0.74270
C          C       0.27379   0.26611   0.74270
C          C       0.27379   0.73389   0.75729
C          C       0.72621   0.26611   0.75729
C          C       0.71868   0.77698   0.84352
C          C       0.28132   0.22302   0.84352
C          C       0.28132   0.77698   0.65648
C          C       0.71868   0.22302   0.65648
H          H       0.74625   0.77999   0.91834
H          H       0.25375   0.22001   0.91834
H          H       0.25375   0.77999   0.58166
H          H       0.74625   0.22001   0.58166
C          C       0.67560   0.81989   0.84751
C          C       0.32440   0.18011   0.84751
C          C       0.32440   0.81989   0.65248
C          C       0.67560   0.18011   0.65248
H          H       0.67126   0.85341   0.92473
H          H       0.32874   0.14659   0.92473
H          H       0.32874   0.85341   0.57527
H          H       0.67126   0.14659   0.57527
C          C       0.64011   0.82276   0.74957
C          C       0.35989   0.17724   0.74957
C          C       0.35989   0.82276   0.75043
C          C       0.64011   0.17724   0.75043
C          C       0.80737   0.68228   0.81399
C          C       0.19263   0.31772   0.81399
C          C       0.19263   0.68228   0.68601
C          C       0.80737   0.31772   0.68601
H          H       0.80317   0.70377   0.90415
H          H       0.19683   0.29623   0.90415
H          H       0.19683   0.70377   0.59585
H          H       0.80317   0.29623   0.59585
N          N       0.77218   0.69237   0.72964
N          N       0.22782   0.30763   0.72964
N          N       0.22782   0.69237   0.77036
N          N       0.77218   0.30763   0.77036
C          C       0.66928   0.96521   0.74810
C          C       0.33072   0.03479   0.74810
C          C       0.33072   0.96521   0.75189
C          C       0.66928   0.03479   0.75189
C          C       0.52752   0.78366   0.75000
C          C       0.47248   0.21634   0.75000
C          C       0.47248   0.78366   0.75000
C          C       0.52752   0.21634   0.75000
C          C       0.86276   0.60338   0.68664
C          C       0.13724   0.39662   0.68664
C          C       0.13724   0.60338   0.81335
C          C       0.86276   0.39662   0.81335
H          H       0.83166   0.59812   0.61962
H          H       0.16834   0.40188   0.61962
H          H       0.16834   0.59812   0.88038
H          H       0.83166   0.40188   0.88038
C          C       0.90981   0.56772   0.67068
C          C       0.09019   0.43228   0.67068
C          C       0.09019   0.56772   0.82932
C          C       0.90981   0.43228   0.82932
H          H       0.91435   0.53557   0.59177
H          H       0.08565   0.46443   0.59177
H          H       0.08565   0.53557   0.90823
H          H       0.91435   0.46443   0.90823
C          C       0.95045   0.57319   0.75759
C          C       0.04955   0.42681   0.75759
C          C       0.04955   0.57319   0.74242
C          C       0.95045   0.42681   0.74242
C          C       0.92352   0.59426   0.76163
C          C       0.07648   0.40574   0.76163
C          C       0.07648   0.59426   0.73837
C          C       0.92352   0.40574   0.73837
C          C       0.94402   0.61650   0.85668
C          C       0.05598   0.38350   0.85668
C          C       0.05598   0.61650   0.64332
C          C       0.94402   0.38350   0.64332
H          H       0.97510   0.62271   0.92206
H          H       0.02490   0.37729   0.92206
H          H       0.02490   0.62271   0.57794
H          H       0.97510   0.37729   0.57794
C          C       0.89728   0.65107   0.87388
C          C       0.10272   0.34893   0.87388
C          C       0.10272   0.65107   0.62611
C          C       0.89728   0.34893   0.62611
C          C       0.85604   0.64460   0.78993
C          C       0.14396   0.35540   0.78993
C          C       0.14396   0.64460   0.71007
C          C       0.85604   0.35540   0.71007
H          H       0.55199   0.73955   0.75083
H          H       0.44801   0.26045   0.75083
H          H       0.44801   0.73955   0.74917
H          H       0.55199   0.26045   0.74917
H          H       0.29577   0.06540   0.74513
H          H       0.70423   0.93460   0.74513
H          H       0.70423   0.06540   0.75487
H          H       0.29577   0.93460   0.75487
H          H       0.89346   0.68328   0.95314
H          H       0.10654   0.31672   0.95314
H          H       0.10654   0.68328   0.54686
H          H       0.89346   0.31672   0.54686
N          N       0.50000   0.11344   0.75000
N          N       0.50000   0.88656   0.75000
H          H       0.50000   0.93442   0.75000
H          H       0.50000   0.06558   0.75000
N          N       0.41188   0.00000   0.75000
N          N       0.58812   0.00000   0.75000
