data_crystal

_cell_length_a    24.18930
_cell_length_b    3.96430
_cell_length_c    48.29400
_cell_angle_alpha 90.00000
_cell_angle_beta  102.00000
_cell_angle_gamma 90.00000

_space_group_name_Hall 'P 1'
_space_group_name_H-M_alt 'P 1'

loop_
_symmetry_equiv_pos_as_xyz
 'x,y,z'

loop_
_atom_site_label
_atom_site_type_symbol
_atom_site_fract_x
_atom_site_fract_y
_atom_site_fract_z
C          C       0.62761   0.43634   0.03136
C          C       0.37239   0.43634   0.46864
C          C       0.58052   0.38637   0.00805
C          C       0.41948   0.38637   0.49195
C          C       0.52363   0.39017   0.01201
C          C       0.47637   0.39017   0.48799
C          C       0.51438   0.38742   0.04021
C          C       0.48562   0.38742   0.45979
C          C       0.56018   0.43895   0.06410
C          C       0.43982   0.43895   0.43590
C          C       0.61513   0.47428   0.05856
C          C       0.38487   0.47428   0.44144
C          C       0.58729   0.32093   0.48025
C          C       0.41271   0.32093   0.01975
C          C       0.54161   0.32203   0.45702
C          C       0.45839   0.32203   0.04298
C          C       0.68568   0.45545   0.02903
C          C       0.31432   0.45545   0.47097
C          C       0.55390   0.46170   0.09286
C          C       0.44610   0.46170   0.40714
C          C       0.72968   0.29360   0.04882
C          C       0.27032   0.29360   0.45118
C          C       0.78668   0.30461   0.04617
C          C       0.21332   0.30461   0.45383
C          C       0.80234   0.46974   0.02311
C          C       0.19766   0.46974   0.47689
C          C       0.75936   0.63983   0.00371
C          C       0.24064   0.63983   0.49629
C          C       0.70295   0.63834   0.00709
C          C       0.29705   0.63834   0.49291
C          C       0.50921   0.64710   0.10038
C          C       0.49079   0.64710   0.39962
C          C       0.49949   0.64632   0.12805
C          C       0.50051   0.64632   0.37195
C          C       0.53625   0.47437   0.15004
C          C       0.46375   0.47437   0.34996
C          C       0.58368   0.30834   0.14361
C          C       0.41632   0.30834   0.35639
C          C       0.59183   0.29951   0.11552
C          C       0.40817   0.29951   0.38448
N          N       0.47814   0.47662   0.32429
N          N       0.52186   0.47662   0.17571
C          C       0.05978   0.50737   0.00045
C          C       0.94022   0.50737   0.49955
C          C       0.01916   0.50467   0.47456
C          C       0.98084   0.50467   0.02543
C          C       0.96068   0.50635   0.47416
C          C       0.03932   0.50635   0.02584
C          C       0.88127   0.51504   0.49838
C          C       0.11873   0.51504   0.00162
N          N       0.85764   0.45794   0.02106
N          N       0.14236   0.45794   0.47894
C          C       0.55062   0.38652   0.20187
C          C       0.44938   0.38652   0.29813
C          C       0.52506   0.39169   0.22557
C          C       0.47494   0.39169   0.27443
C          C       0.46555   0.39348   0.22269
C          C       0.53445   0.39348   0.27731
C          C       0.44101   0.39113   0.24665
C          C       0.55899   0.39113   0.25335
H          H       0.64775   0.53138   0.07523
H          H       0.35225   0.53138   0.42477
H          H       0.62595   0.27192   0.47603
H          H       0.37405   0.27192   0.02397
H          H       0.55099   0.27466   0.43785
H          H       0.44901   0.27466   0.06215
H          H       0.72059   0.15968   0.06539
H          H       0.27941   0.15968   0.43461
H          H       0.81678   0.18436   0.06102
H          H       0.18322   0.18436   0.43898
H          H       0.76872   0.77116   0.48709
H          H       0.23128   0.77116   0.01291
H          H       0.67418   0.77460   0.49298
H          H       0.32582   0.77460   0.00702
H          H       0.48226   0.78411   0.08552
H          H       0.51774   0.78411   0.41448
H          H       0.46525   0.77454   0.13201
H          H       0.53475   0.77454   0.36799
H          H       0.61185   0.18518   0.15910
H          H       0.38815   0.18518   0.34090
H          H       0.62559   0.16563   0.11171
H          H       0.37441   0.16563   0.38829
H          H       0.03172   0.50417   0.45564
H          H       0.96828   0.50417   0.04436
H          H       0.93295   0.50694   0.45489
H          H       0.06705   0.50694   0.04511
H          H       0.85489   0.56202   0.47919
H          H       0.14511   0.56202   0.02081
H          H       0.59213   0.31607   0.20461
H          H       0.40787   0.31607   0.29539
H          H       0.43921   0.39353   0.20304
H          H       0.56079   0.39353   0.29696
H          H       0.39779   0.38983   0.24355
H          H       0.60221   0.38983   0.25645
C          C       0.62761   0.43634   0.53136
C          C       0.37239   0.43634   0.96864
C          C       0.58052   0.38637   0.50805
C          C       0.41948   0.38637   0.99195
C          C       0.52363   0.39017   0.51201
C          C       0.47637   0.39017   0.98799
C          C       0.51438   0.38742   0.54021
C          C       0.48562   0.38742   0.95979
C          C       0.56018   0.43895   0.56410
C          C       0.43982   0.43895   0.93590
C          C       0.61513   0.47428   0.55856
C          C       0.38487   0.47428   0.94143
C          C       0.58729   0.32093   0.98025
C          C       0.41271   0.32093   0.51975
C          C       0.54161   0.32203   0.95702
C          C       0.45839   0.32203   0.54298
C          C       0.68568   0.45545   0.52903
C          C       0.31432   0.45545   0.97097
C          C       0.55390   0.46170   0.59286
C          C       0.44610   0.46170   0.90714
C          C       0.72968   0.29360   0.54882
C          C       0.27032   0.29360   0.95118
C          C       0.78668   0.30461   0.54617
C          C       0.21332   0.30461   0.95383
C          C       0.80234   0.46974   0.52311
C          C       0.19766   0.46974   0.97689
C          C       0.75936   0.63983   0.50371
C          C       0.24064   0.63983   0.99629
C          C       0.70295   0.63834   0.50709
C          C       0.29705   0.63834   0.99291
C          C       0.50921   0.64710   0.60038
C          C       0.49079   0.64710   0.89961
C          C       0.49949   0.64632   0.62805
C          C       0.50051   0.64632   0.87195
C          C       0.53625   0.47437   0.65004
C          C       0.46375   0.47437   0.84996
C          C       0.58368   0.30834   0.64361
C          C       0.41632   0.30834   0.85639
C          C       0.59183   0.29951   0.61552
C          C       0.40817   0.29951   0.88448
N          N       0.47814   0.47662   0.82429
N          N       0.52186   0.47662   0.67571
C          C       0.05978   0.50737   0.50045
C          C       0.94022   0.50737   0.99955
C          C       0.01916   0.50467   0.97456
C          C       0.98084   0.50467   0.52543
C          C       0.96068   0.50635   0.97416
C          C       0.03932   0.50635   0.52584
C          C       0.88127   0.51504   0.99838
C          C       0.11873   0.51504   0.50162
N          N       0.85764   0.45794   0.52106
N          N       0.14236   0.45794   0.97894
C          C       0.55062   0.38652   0.70187
C          C       0.44938   0.38652   0.79813
C          C       0.52506   0.39169   0.72557
C          C       0.47494   0.39169   0.77443
C          C       0.46555   0.39348   0.72269
C          C       0.53445   0.39348   0.77731
C          C       0.44101   0.39113   0.74665
C          C       0.55899   0.39113   0.75335
H          H       0.64775   0.53138   0.57523
H          H       0.35225   0.53138   0.92477
H          H       0.62595   0.27192   0.97603
H          H       0.37405   0.27192   0.52397
H          H       0.55099   0.27466   0.93785
H          H       0.44901   0.27466   0.56215
H          H       0.72059   0.15968   0.56539
H          H       0.27941   0.15968   0.93461
H          H       0.81678   0.18436   0.56102
H          H       0.18322   0.18436   0.93899
H          H       0.76872   0.77116   0.98709
H          H       0.23128   0.77116   0.51291
H          H       0.67418   0.77460   0.99298
H          H       0.32582   0.77460   0.50702
H          H       0.48226   0.78411   0.58552
H          H       0.51774   0.78411   0.91448
H          H       0.46525   0.77454   0.63201
H          H       0.53475   0.77454   0.86799
H          H       0.61185   0.18518   0.65910
H          H       0.38815   0.18518   0.84090
H          H       0.62559   0.16563   0.61171
H          H       0.37441   0.16563   0.88829
H          H       0.03172   0.50417   0.95564
H          H       0.96828   0.50417   0.54436
H          H       0.93295   0.50694   0.95489
H          H       0.06705   0.50694   0.54511
H          H       0.85489   0.56202   0.97919
H          H       0.14511   0.56202   0.52081
H          H       0.59213   0.31607   0.70461
H          H       0.40787   0.31607   0.79539
H          H       0.43921   0.39353   0.70304
H          H       0.56079   0.39353   0.79696
H          H       0.39779   0.38983   0.74355
H          H       0.60221   0.38983   0.75645
