data_crystal

_cell_length_a    33.92290
_cell_length_b    32.77700
_cell_length_c    13.35380
_cell_angle_alpha 90.00000
_cell_angle_beta  90.00000
_cell_angle_gamma 90.00000

_space_group_name_Hall 'P 1'
_space_group_name_H-M_alt 'P 1'

loop_
_symmetry_equiv_pos_as_xyz
 'x,y,z'

loop_
_atom_site_label
_atom_site_type_symbol
_atom_site_fract_x
_atom_site_fract_y
_atom_site_fract_z
C          C       0.46393   0.95694   0.31721
C          C       0.53607   0.04306   0.31721
C          C       0.46393   0.04306   0.31721
C          C       0.53607   0.95694   0.31721
C          C       0.96393   0.45694   0.31721
C          C       0.03607   0.54306   0.31721
C          C       0.96393   0.54306   0.31721
C          C       0.03607   0.45694   0.31721
C          C       0.42836   0.02111   0.31463
C          C       0.57164   0.97889   0.31463
C          C       0.42836   0.97889   0.31463
C          C       0.57164   0.02111   0.31463
C          C       0.92836   0.52111   0.31463
C          C       0.07164   0.47889   0.31463
C          C       0.92836   0.47889   0.31463
C          C       0.07164   0.52111   0.31463
C          C       0.46441   0.08599   0.31228
C          C       0.53559   0.91401   0.31228
C          C       0.46441   0.91401   0.31228
C          C       0.53559   0.08599   0.31228
C          C       0.96441   0.58599   0.31228
C          C       0.03559   0.41401   0.31228
C          C       0.96441   0.41401   0.31228
C          C       0.03559   0.58599   0.31228
C          C       0.40178   0.11225   0.38160
C          C       0.59822   0.88775   0.38160
C          C       0.40178   0.88775   0.38160
C          C       0.59822   0.11225   0.38160
C          C       0.90178   0.61225   0.38160
C          C       0.09822   0.38775   0.38160
C          C       0.90178   0.38775   0.38160
C          C       0.09822   0.61225   0.38160
C          C       0.42801   0.10923   0.30113
C          C       0.57199   0.89077   0.30113
C          C       0.42801   0.89077   0.30113
C          C       0.57199   0.10923   0.30113
C          C       0.92801   0.60923   0.30113
C          C       0.07199   0.39077   0.30113
C          C       0.92801   0.39077   0.30113
C          C       0.07199   0.60923   0.30113
C          C       0.36499   0.12989   0.36719
C          C       0.63501   0.87011   0.36719
C          C       0.36499   0.87011   0.36719
C          C       0.63501   0.12989   0.36719
C          C       0.86499   0.62989   0.36719
C          C       0.13501   0.37011   0.36719
C          C       0.86499   0.37011   0.36719
C          C       0.13501   0.62989   0.36719
C          C       0.35461   0.14524   0.27284
C          C       0.64539   0.85476   0.27284
C          C       0.35461   0.85476   0.27284
C          C       0.64539   0.14524   0.27284
C          C       0.85461   0.64524   0.27284
C          C       0.14539   0.35476   0.27284
C          C       0.85461   0.35476   0.27284
C          C       0.14539   0.64524   0.27284
C          C       0.38133   0.14293   0.19281
C          C       0.61867   0.85707   0.19281
C          C       0.38133   0.85707   0.19281
C          C       0.61867   0.14293   0.19281
C          C       0.88133   0.64293   0.19281
C          C       0.11867   0.35707   0.19281
C          C       0.88133   0.35707   0.19281
C          C       0.11867   0.64293   0.19281
C          C       0.41794   0.12479   0.20697
C          C       0.58206   0.87521   0.20697
C          C       0.41794   0.87521   0.20697
C          C       0.58206   0.12479   0.20697
C          C       0.91794   0.62479   0.20697
C          C       0.08206   0.37521   0.20697
C          C       0.91794   0.37521   0.20697
C          C       0.08206   0.62479   0.20697
C          C       0.31707   0.16624   0.26220
C          C       0.68293   0.83376   0.26220
C          C       0.31707   0.83376   0.26220
C          C       0.68293   0.16624   0.26220
C          C       0.81707   0.66624   0.26220
C          C       0.18293   0.33376   0.26220
C          C       0.81707   0.33376   0.26220
C          C       0.18293   0.66624   0.26220
C          C       0.77980   0.27944   0.19020
C          C       0.22020   0.72056   0.19020
C          C       0.77980   0.72056   0.19020
C          C       0.22020   0.27944   0.19020
C          C       0.27980   0.77944   0.19020
C          C       0.72020   0.22056   0.19020
C          C       0.27980   0.22056   0.19020
C          C       0.72020   0.77944   0.19020
C          C       0.76509   0.26454   0.09940
C          C       0.23491   0.73546   0.09940
C          C       0.76509   0.73546   0.09940
C          C       0.23491   0.26454   0.09940
C          C       0.26509   0.76454   0.09940
C          C       0.73491   0.23546   0.09940
C          C       0.26509   0.23546   0.09940
C          C       0.73491   0.76454   0.09940
C          C       0.73501   0.23579   0.28081
C          C       0.26499   0.76421   0.28081
C          C       0.73501   0.76421   0.28081
C          C       0.26499   0.23579   0.28081
C          C       0.23501   0.73579   0.28081
C          C       0.76499   0.26421   0.28081
C          C       0.23501   0.26421   0.28081
C          C       0.76499   0.73579   0.28081
N          N       0.31168   0.19220   0.19023
N          N       0.68832   0.80780   0.19023
N          N       0.31168   0.80780   0.19023
N          N       0.68832   0.19220   0.19023
N          N       0.81168   0.69220   0.19023
N          N       0.18832   0.30780   0.19023
N          N       0.81168   0.30780   0.19023
N          N       0.18832   0.69220   0.19023
H          H       0.40007   0.03620   0.31018
H          H       0.59993   0.96380   0.31018
H          H       0.40007   0.96380   0.31018
H          H       0.59993   0.03620   0.31018
H          H       0.90007   0.53620   0.31018
H          H       0.09993   0.46380   0.31018
H          H       0.90007   0.46380   0.31018
H          H       0.09993   0.53620   0.31018
H          H       0.40945   0.09993   0.45434
H          H       0.59055   0.90007   0.45434
H          H       0.40945   0.90007   0.45434
H          H       0.59055   0.09993   0.45434
H          H       0.90945   0.59993   0.45434
H          H       0.09055   0.40007   0.45434
H          H       0.90945   0.40007   0.45434
H          H       0.09055   0.59993   0.45434
H          H       0.34483   0.13203   0.42991
H          H       0.65517   0.86797   0.42991
H          H       0.34483   0.86797   0.42991
H          H       0.65517   0.13203   0.42991
H          H       0.84483   0.63203   0.42991
H          H       0.15517   0.36797   0.42991
H          H       0.84483   0.36797   0.42991
H          H       0.15517   0.63203   0.42991
H          H       0.37385   0.15485   0.11958
H          H       0.62615   0.84515   0.11958
H          H       0.37385   0.84515   0.11958
H          H       0.62615   0.15485   0.11958
H          H       0.87385   0.65485   0.11958
H          H       0.12615   0.34515   0.11958
H          H       0.87385   0.34515   0.11958
H          H       0.12615   0.65485   0.11958
H          H       0.43807   0.12205   0.14433
H          H       0.56193   0.87795   0.14433
H          H       0.43807   0.87795   0.14433
H          H       0.56193   0.12205   0.14433
H          H       0.93807   0.62205   0.14433
H          H       0.06193   0.37795   0.14433
H          H       0.93807   0.37795   0.14433
H          H       0.06193   0.62205   0.14433
H          H       0.29564   0.16300   0.32186
H          H       0.70436   0.83700   0.32186
H          H       0.29564   0.83700   0.32186
H          H       0.70436   0.16300   0.32186
H          H       0.79564   0.66300   0.32186
H          H       0.20436   0.33700   0.32186
H          H       0.79564   0.33700   0.32186
H          H       0.20436   0.66300   0.32186
H          H       0.77684   0.27567   0.02930
H          H       0.22316   0.72433   0.02930
H          H       0.77684   0.72433   0.02930
H          H       0.22316   0.27567   0.02930
H          H       0.27684   0.77567   0.02930
H          H       0.72316   0.22433   0.02930
H          H       0.27684   0.22433   0.02930
H          H       0.72316   0.77567   0.02930
H          H       0.72310   0.22629   0.35207
H          H       0.27690   0.77371   0.35207
H          H       0.72310   0.77371   0.35207
H          H       0.27690   0.22629   0.35207
H          H       0.22310   0.72629   0.35207
H          H       0.77690   0.27371   0.35207
H          H       0.22310   0.27371   0.35207
H          H       0.77690   0.72629   0.35207
C          C       0.50000   0.10704   0.30960
C          C       0.50000   0.89296   0.30960
C          C       0.00000   0.60704   0.30960
C          C       0.00000   0.39296   0.30960
C          C       0.50000   0.97845   0.31990
C          C       0.50000   0.02155   0.31990
C          C       0.00000   0.47845   0.31990
C          C       0.00000   0.52155   0.31990
H          H       0.50000   0.14005   0.30336
H          H       0.50000   0.85995   0.30336
H          H       0.00000   0.64005   0.30336
H          H       0.00000   0.35995   0.30336
C          C       0.46393   0.95694   0.81721
C          C       0.53607   0.04306   0.81721
C          C       0.46393   0.04306   0.81721
C          C       0.53607   0.95694   0.81721
C          C       0.96393   0.45694   0.81721
C          C       0.03607   0.54306   0.81721
C          C       0.96393   0.54306   0.81721
C          C       0.03607   0.45694   0.81721
C          C       0.42836   0.02111   0.81463
C          C       0.57164   0.97889   0.81463
C          C       0.42836   0.97889   0.81463
C          C       0.57164   0.02111   0.81463
C          C       0.92836   0.52111   0.81463
C          C       0.07164   0.47889   0.81463
C          C       0.92836   0.47889   0.81463
C          C       0.07164   0.52111   0.81463
C          C       0.46441   0.08599   0.81228
C          C       0.53559   0.91401   0.81228
C          C       0.46441   0.91401   0.81228
C          C       0.53559   0.08599   0.81228
C          C       0.96441   0.58599   0.81228
C          C       0.03559   0.41401   0.81228
C          C       0.96441   0.41401   0.81228
C          C       0.03559   0.58599   0.81228
C          C       0.40178   0.11225   0.88160
C          C       0.59822   0.88775   0.88160
C          C       0.40178   0.88775   0.88160
C          C       0.59822   0.11225   0.88160
C          C       0.90178   0.61225   0.88160
C          C       0.09822   0.38775   0.88160
C          C       0.90178   0.38775   0.88160
C          C       0.09822   0.61225   0.88160
C          C       0.42801   0.10923   0.80114
C          C       0.57199   0.89077   0.80114
C          C       0.42801   0.89077   0.80114
C          C       0.57199   0.10923   0.80114
C          C       0.92801   0.60923   0.80114
C          C       0.07199   0.39077   0.80114
C          C       0.92801   0.39077   0.80114
C          C       0.07199   0.60923   0.80114
C          C       0.36499   0.12989   0.86718
C          C       0.63501   0.87011   0.86718
C          C       0.36499   0.87011   0.86718
C          C       0.63501   0.12989   0.86718
C          C       0.86499   0.62989   0.86718
C          C       0.13501   0.37011   0.86718
C          C       0.86499   0.37011   0.86718
C          C       0.13501   0.62989   0.86718
C          C       0.35461   0.14524   0.77284
C          C       0.64539   0.85476   0.77284
C          C       0.35461   0.85476   0.77284
C          C       0.64539   0.14524   0.77284
C          C       0.85461   0.64524   0.77284
C          C       0.14539   0.35476   0.77284
C          C       0.85461   0.35476   0.77284
C          C       0.14539   0.64524   0.77284
C          C       0.38133   0.14293   0.69281
C          C       0.61867   0.85707   0.69281
C          C       0.38133   0.85707   0.69281
C          C       0.61867   0.14293   0.69281
C          C       0.88133   0.64293   0.69281
C          C       0.11867   0.35707   0.69281
C          C       0.88133   0.35707   0.69281
C          C       0.11867   0.64293   0.69281
C          C       0.41794   0.12479   0.70698
C          C       0.58206   0.87521   0.70698
C          C       0.41794   0.87521   0.70698
C          C       0.58206   0.12479   0.70698
C          C       0.91794   0.62479   0.70698
C          C       0.08206   0.37521   0.70698
C          C       0.91794   0.37521   0.70698
C          C       0.08206   0.62479   0.70698
C          C       0.31707   0.16624   0.76220
C          C       0.68293   0.83376   0.76220
C          C       0.31707   0.83376   0.76220
C          C       0.68293   0.16624   0.76220
C          C       0.81707   0.66624   0.76220
C          C       0.18293   0.33376   0.76220
C          C       0.81707   0.33376   0.76220
C          C       0.18293   0.66624   0.76220
C          C       0.77980   0.27944   0.69020
C          C       0.22020   0.72056   0.69020
C          C       0.77980   0.72056   0.69020
C          C       0.22020   0.27944   0.69020
C          C       0.27980   0.77944   0.69020
C          C       0.72020   0.22056   0.69020
C          C       0.27980   0.22056   0.69020
C          C       0.72020   0.77944   0.69020
C          C       0.76509   0.26454   0.59940
C          C       0.23491   0.73546   0.59940
C          C       0.76509   0.73546   0.59940
C          C       0.23491   0.26454   0.59940
C          C       0.26509   0.76454   0.59940
C          C       0.73491   0.23546   0.59940
C          C       0.26509   0.23546   0.59940
C          C       0.73491   0.76454   0.59940
C          C       0.73501   0.23579   0.78081
C          C       0.26499   0.76421   0.78081
C          C       0.73501   0.76421   0.78081
C          C       0.26499   0.23579   0.78081
C          C       0.23501   0.73579   0.78081
C          C       0.76499   0.26421   0.78081
C          C       0.23501   0.26421   0.78081
C          C       0.76499   0.73579   0.78081
N          N       0.31168   0.19220   0.69023
N          N       0.68832   0.80780   0.69023
N          N       0.31168   0.80780   0.69023
N          N       0.68832   0.19220   0.69023
N          N       0.81168   0.69220   0.69023
N          N       0.18832   0.30780   0.69023
N          N       0.81168   0.30780   0.69023
N          N       0.18832   0.69220   0.69023
H          H       0.40007   0.03620   0.81018
H          H       0.59993   0.96380   0.81018
H          H       0.40007   0.96380   0.81018
H          H       0.59993   0.03620   0.81018
H          H       0.90007   0.53620   0.81018
H          H       0.09993   0.46380   0.81018
H          H       0.90007   0.46380   0.81018
H          H       0.09993   0.53620   0.81018
H          H       0.40945   0.09993   0.95435
H          H       0.59055   0.90007   0.95435
H          H       0.40945   0.90007   0.95435
H          H       0.59055   0.09993   0.95435
H          H       0.90945   0.59993   0.95435
H          H       0.09055   0.40007   0.95435
H          H       0.90945   0.40007   0.95435
H          H       0.09055   0.59993   0.95435
H          H       0.34483   0.13203   0.92991
H          H       0.65517   0.86797   0.92991
H          H       0.34483   0.86797   0.92991
H          H       0.65517   0.13203   0.92991
H          H       0.84483   0.63203   0.92991
H          H       0.15517   0.36797   0.92991
H          H       0.84483   0.36797   0.92991
H          H       0.15517   0.63203   0.92991
H          H       0.37385   0.15485   0.61958
H          H       0.62615   0.84515   0.61958
H          H       0.37385   0.84515   0.61958
H          H       0.62615   0.15485   0.61958
H          H       0.87385   0.65485   0.61958
H          H       0.12615   0.34515   0.61958
H          H       0.87385   0.34515   0.61958
H          H       0.12615   0.65485   0.61958
H          H       0.43807   0.12205   0.64433
H          H       0.56193   0.87795   0.64433
H          H       0.43807   0.87795   0.64433
H          H       0.56193   0.12205   0.64433
H          H       0.93807   0.62205   0.64433
H          H       0.06193   0.37795   0.64433
H          H       0.93807   0.37795   0.64433
H          H       0.06193   0.62205   0.64433
H          H       0.29564   0.16300   0.82186
H          H       0.70436   0.83700   0.82186
H          H       0.29564   0.83700   0.82186
H          H       0.70436   0.16300   0.82186
H          H       0.79564   0.66300   0.82186
H          H       0.20436   0.33700   0.82186
H          H       0.79564   0.33700   0.82186
H          H       0.20436   0.66300   0.82186
H          H       0.77684   0.27567   0.52929
H          H       0.22316   0.72433   0.52929
H          H       0.77684   0.72433   0.52929
H          H       0.22316   0.27567   0.52929
H          H       0.27684   0.77567   0.52929
H          H       0.72316   0.22433   0.52929
H          H       0.27684   0.22433   0.52929
H          H       0.72316   0.77567   0.52929
H          H       0.72310   0.22629   0.85207
H          H       0.27690   0.77371   0.85207
H          H       0.72310   0.77371   0.85207
H          H       0.27690   0.22629   0.85207
H          H       0.22310   0.72629   0.85207
H          H       0.77690   0.27371   0.85207
H          H       0.22310   0.27371   0.85207
H          H       0.77690   0.72629   0.85207
C          C       0.50000   0.10704   0.80960
C          C       0.50000   0.89296   0.80960
C          C       0.00000   0.60704   0.80960
C          C       0.00000   0.39296   0.80960
C          C       0.50000   0.97845   0.81990
C          C       0.50000   0.02155   0.81990
C          C       0.00000   0.47845   0.81990
C          C       0.00000   0.52155   0.81990
H          H       0.50000   0.14005   0.80336
H          H       0.50000   0.85995   0.80336
H          H       0.00000   0.64005   0.80336
H          H       0.00000   0.35995   0.80336
