data_crystal

_cell_length_a    37.79660
_cell_length_b    37.79660
_cell_length_c    7.24320
_cell_angle_alpha 90.00000
_cell_angle_beta  90.00000
_cell_angle_gamma 120.00000

_space_group_name_Hall 'P 1'
_space_group_name_H-M_alt 'P 1'

loop_
_symmetry_equiv_pos_as_xyz
 'x,y,z'

loop_
_atom_site_label
_atom_site_type_symbol
_atom_site_fract_x
_atom_site_fract_y
_atom_site_fract_z
C          C       0.99501   0.47905   0.10711
C          C       0.52095   0.51596   0.10711
C          C       0.48404   0.00499   0.10711
C          C       0.00499   0.52095   0.10711
C          C       0.47905   0.48404   0.10711
C          C       0.51596   0.99501   0.10711
C          C       0.94842   0.40855   0.00542
C          C       0.59145   0.53987   0.00542
C          C       0.46013   0.05158   0.00542
C          C       0.05158   0.59145   0.00542
C          C       0.40855   0.46013   0.00542
C          C       0.53987   0.94842   0.00542
C          C       0.97934   0.39953   0.03324
C          C       0.60047   0.57981   0.03324
C          C       0.42019   0.02066   0.03324
C          C       0.02066   0.60047   0.03324
C          C       0.39953   0.42019   0.03324
C          C       0.57981   0.97934   0.03324
C          C       0.01888   0.42941   0.09588
C          C       0.57059   0.58947   0.09588
C          C       0.41053   0.98112   0.09588
C          C       0.98112   0.57059   0.09588
C          C       0.42941   0.41053   0.09588
C          C       0.58947   0.01888   0.09588
C          C       0.02499   0.46821   0.14094
C          C       0.53179   0.55678   0.14094
C          C       0.44322   0.97501   0.14094
C          C       0.97501   0.53179   0.14094
C          C       0.46821   0.44322   0.14094
C          C       0.55678   0.02499   0.14094
C          C       0.95620   0.44764   0.04399
C          C       0.55236   0.50856   0.04399
C          C       0.49144   0.04380   0.04399
C          C       0.04380   0.55236   0.04399
C          C       0.44764   0.49144   0.04399
C          C       0.50856   0.95620   0.04399
C          C       0.37803   0.47130   0.43441
C          C       0.52870   0.90673   0.43441
C          C       0.09327   0.62197   0.43441
C          C       0.62197   0.52870   0.43441
C          C       0.47130   0.09327   0.43441
C          C       0.90673   0.37803   0.43441
C          C       0.05257   0.42213   0.08581
C          C       0.57787   0.63044   0.08581
C          C       0.36956   0.94743   0.08581
C          C       0.94743   0.57787   0.08581
C          C       0.42213   0.36956   0.08581
C          C       0.63044   0.05257   0.08581
C          C       0.04762   0.38257   0.11640
C          C       0.61743   0.66505   0.11640
C          C       0.33495   0.95238   0.11640
C          C       0.95238   0.61743   0.11640
C          C       0.38257   0.33495   0.11640
C          C       0.66505   0.04762   0.11640
C          C       0.07945   0.37548   0.08832
C          C       0.62452   0.70397   0.08832
C          C       0.29603   0.92055   0.08832
C          C       0.92055   0.62452   0.08832
C          C       0.37548   0.29603   0.08832
C          C       0.70397   0.07945   0.08832
C          C       0.11781   0.40665   0.02889
C          C       0.59335   0.71116   0.02889
C          C       0.28884   0.88219   0.02889
C          C       0.88219   0.59335   0.02889
C          C       0.40665   0.28884   0.02889
C          C       0.71116   0.11781   0.02889
C          C       0.12345   0.44586   0.49976
C          C       0.55414   0.67759   0.49976
C          C       0.32241   0.87655   0.49976
C          C       0.87655   0.55414   0.49976
C          C       0.44586   0.32241   0.49976
C          C       0.67759   0.12345   0.49976
C          C       0.09213   0.45370   0.02845
C          C       0.54630   0.63843   0.02845
C          C       0.36157   0.90787   0.02845
C          C       0.90787   0.54630   0.02845
C          C       0.45370   0.36157   0.02845
C          C       0.63843   0.09213   0.02845
C          C       0.15100   0.39633   0.00241
C          C       0.60367   0.75467   0.00241
C          C       0.24533   0.84900   0.00241
C          C       0.84900   0.60367   0.00241
C          C       0.39633   0.24533   0.00241
C          C       0.75467   0.15100   0.00241
N          N       0.18646   0.42905   0.43633
N          N       0.57095   0.75741   0.43633
N          N       0.24259   0.81354   0.43633
N          N       0.81354   0.57095   0.43633
N          N       0.42905   0.24259   0.43633
N          N       0.75741   0.18646   0.43633
C          C       0.22446   0.43165   0.42386
C          C       0.56835   0.79281   0.42386
C          C       0.20719   0.77554   0.42386
C          C       0.77554   0.56835   0.42386
C          C       0.43165   0.20719   0.42386
C          C       0.79281   0.22446   0.42386
C          C       0.22905   0.39899   0.36645
C          C       0.60101   0.83006   0.36645
C          C       0.16994   0.77095   0.36645
C          C       0.77095   0.60101   0.36645
C          C       0.39899   0.16994   0.36645
C          C       0.83006   0.22905   0.36645
C          C       0.26702   0.40181   0.36558
C          C       0.59819   0.86521   0.36558
C          C       0.13479   0.73298   0.36558
C          C       0.73298   0.59819   0.36558
C          C       0.40181   0.13479   0.36558
C          C       0.86521   0.26702   0.36558
C          C       0.30200   0.43754   0.42058
C          C       0.56246   0.86446   0.42058
C          C       0.13554   0.69800   0.42058
C          C       0.69800   0.56246   0.42058
C          C       0.43754   0.13554   0.42058
C          C       0.86446   0.30200   0.42058
C          C       0.29761   0.47074   0.47091
C          C       0.52926   0.82687   0.47091
C          C       0.17313   0.70239   0.47091
C          C       0.70239   0.52926   0.47091
C          C       0.47074   0.17313   0.47091
C          C       0.82687   0.29761   0.47091
C          C       0.25963   0.46791   0.47163
C          C       0.53209   0.79172   0.47163
C          C       0.20828   0.74037   0.47163
C          C       0.74037   0.53209   0.47163
C          C       0.46791   0.20828   0.47163
C          C       0.79172   0.25963   0.47163
N          N       0.33908   0.43817   0.43339
N          N       0.56183   0.90091   0.43339
N          N       0.09909   0.66092   0.43339
N          N       0.66092   0.56183   0.43339
N          N       0.43817   0.09909   0.43339
N          N       0.90091   0.33908   0.43339
O          O       0.38531   0.50506   0.38496
O          O       0.49494   0.88025   0.38496
O          O       0.11975   0.61469   0.38496
O          O       0.61469   0.49494   0.38496
O          O       0.50506   0.11975   0.38496
O          O       0.88025   0.38531   0.38496
O          O       0.14859   0.36377   0.03862
O          O       0.63623   0.78482   0.03862
O          O       0.21518   0.85141   0.03862
O          O       0.85141   0.63623   0.03862
O          O       0.36377   0.21518   0.03862
O          O       0.78482   0.14859   0.03862
H          H       0.97620   0.37023   0.49108
H          H       0.62977   0.60597   0.49108
H          H       0.39403   0.02380   0.49108
H          H       0.02380   0.62977   0.49108
H          H       0.37023   0.39403   0.49108
H          H       0.60597   0.97620   0.49108
H          H       0.05539   0.49204   0.18707
H          H       0.50796   0.56335   0.18707
H          H       0.43665   0.94461   0.18707
H          H       0.94461   0.50796   0.18707
H          H       0.49204   0.43665   0.18707
H          H       0.56335   0.05539   0.18707
H          H       0.93271   0.45579   0.01260
H          H       0.54421   0.47692   0.01260
H          H       0.52308   0.06729   0.01260
H          H       0.06729   0.54421   0.01260
H          H       0.45579   0.52308   0.01260
H          H       0.47692   0.93271   0.01260
H          H       0.01803   0.35725   0.16228
H          H       0.64275   0.66078   0.16228
H          H       0.33922   0.98197   0.16228
H          H       0.98197   0.64275   0.16228
H          H       0.35725   0.33922   0.16228
H          H       0.66078   0.01803   0.16228
H          H       0.07425   0.34451   0.11399
H          H       0.65549   0.72974   0.11399
H          H       0.27026   0.92575   0.11399
H          H       0.92575   0.65549   0.11399
H          H       0.34451   0.27026   0.11399
H          H       0.72974   0.07425   0.11399
H          H       0.15238   0.47191   0.45295
H          H       0.52809   0.68047   0.45295
H          H       0.31953   0.84762   0.45295
H          H       0.84762   0.52809   0.45295
H          H       0.47191   0.31953   0.45295
H          H       0.68047   0.15238   0.45295
H          H       0.09715   0.48440   0.49810
H          H       0.51560   0.61275   0.49810
H          H       0.38725   0.90285   0.49810
H          H       0.90285   0.51560   0.49810
H          H       0.48440   0.38725   0.49810
H          H       0.61275   0.09715   0.49810
H          H       0.18626   0.45471   0.40577
H          H       0.54529   0.73155   0.40577
H          H       0.26845   0.81374   0.40577
H          H       0.81374   0.54529   0.40577
H          H       0.45471   0.26845   0.40577
H          H       0.73155   0.18626   0.40577
H          H       0.20240   0.37003   0.32283
H          H       0.62997   0.83237   0.32283
H          H       0.16763   0.79760   0.32283
H          H       0.79760   0.62997   0.32283
H          H       0.37003   0.16763   0.32283
H          H       0.83237   0.20240   0.32283
H          H       0.26843   0.37468   0.32280
H          H       0.62532   0.89375   0.32280
H          H       0.10625   0.73157   0.32280
H          H       0.73157   0.62532   0.32280
H          H       0.37468   0.10625   0.32280
H          H       0.89375   0.26843   0.32280
H          H       0.32394   0.49946   0.01857
H          H       0.50054   0.82448   0.01857
H          H       0.17552   0.67606   0.01857
H          H       0.67606   0.50054   0.01857
H          H       0.49946   0.17552   0.01857
H          H       0.82448   0.32394   0.01857
H          H       0.25796   0.49467   0.01818
H          H       0.50533   0.76329   0.01818
H          H       0.23671   0.74204   0.01818
H          H       0.74204   0.50533   0.01818
H          H       0.49467   0.23671   0.01818
H          H       0.76329   0.25796   0.01818
H          H       0.33558   0.41112   0.47044
H          H       0.58888   0.92446   0.47044
H          H       0.07554   0.66442   0.47044
H          H       0.66442   0.58888   0.47044
H          H       0.41112   0.07554   0.47044
H          H       0.92446   0.33558   0.47044
C          C       0.99501   0.47905   0.60711
C          C       0.52095   0.51596   0.60711
C          C       0.48404   0.00499   0.60711
C          C       0.00499   0.52095   0.60711
C          C       0.47905   0.48404   0.60711
C          C       0.51596   0.99501   0.60711
C          C       0.94842   0.40855   0.50542
C          C       0.59145   0.53987   0.50542
C          C       0.46013   0.05158   0.50542
C          C       0.05158   0.59145   0.50542
C          C       0.40855   0.46013   0.50542
C          C       0.53987   0.94842   0.50542
C          C       0.97934   0.39953   0.53324
C          C       0.60047   0.57981   0.53324
C          C       0.42019   0.02066   0.53324
C          C       0.02066   0.60047   0.53324
C          C       0.39953   0.42019   0.53324
C          C       0.57981   0.97934   0.53324
C          C       0.01888   0.42941   0.59587
C          C       0.57059   0.58947   0.59587
C          C       0.41053   0.98112   0.59587
C          C       0.98112   0.57059   0.59587
C          C       0.42941   0.41053   0.59587
C          C       0.58947   0.01888   0.59587
C          C       0.02499   0.46821   0.64094
C          C       0.53179   0.55678   0.64094
C          C       0.44322   0.97501   0.64094
C          C       0.97501   0.53179   0.64094
C          C       0.46821   0.44322   0.64094
C          C       0.55678   0.02499   0.64094
C          C       0.95620   0.44764   0.54400
C          C       0.55236   0.50856   0.54400
C          C       0.49144   0.04380   0.54400
C          C       0.04380   0.55236   0.54400
C          C       0.44764   0.49144   0.54400
C          C       0.50856   0.95620   0.54400
C          C       0.37803   0.47130   0.93441
C          C       0.52870   0.90673   0.93441
C          C       0.09327   0.62197   0.93441
C          C       0.62197   0.52870   0.93441
C          C       0.47130   0.09327   0.93441
C          C       0.90673   0.37803   0.93441
C          C       0.05257   0.42213   0.58581
C          C       0.57787   0.63044   0.58581
C          C       0.36956   0.94743   0.58581
C          C       0.94743   0.57787   0.58581
C          C       0.42213   0.36956   0.58581
C          C       0.63044   0.05257   0.58581
C          C       0.04762   0.38257   0.61640
C          C       0.61743   0.66505   0.61640
C          C       0.33495   0.95238   0.61640
C          C       0.95238   0.61743   0.61640
C          C       0.38257   0.33495   0.61640
C          C       0.66505   0.04762   0.61640
C          C       0.07945   0.37548   0.58832
C          C       0.62452   0.70397   0.58832
C          C       0.29603   0.92055   0.58832
C          C       0.92055   0.62452   0.58832
C          C       0.37548   0.29603   0.58832
C          C       0.70397   0.07945   0.58832
C          C       0.11781   0.40665   0.52889
C          C       0.59335   0.71116   0.52889
C          C       0.28884   0.88219   0.52889
C          C       0.88219   0.59335   0.52889
C          C       0.40665   0.28884   0.52889
C          C       0.71116   0.11781   0.52889
C          C       0.12345   0.44586   0.99976
C          C       0.55414   0.67759   0.99976
C          C       0.32241   0.87655   0.99976
C          C       0.87655   0.55414   0.99976
C          C       0.44586   0.32241   0.99976
C          C       0.67759   0.12345   0.99976
C          C       0.09213   0.45370   0.52845
C          C       0.54630   0.63843   0.52845
C          C       0.36157   0.90787   0.52845
C          C       0.90787   0.54630   0.52845
C          C       0.45370   0.36157   0.52845
C          C       0.63843   0.09213   0.52845
C          C       0.15100   0.39633   0.50241
C          C       0.60367   0.75467   0.50241
C          C       0.24533   0.84900   0.50241
C          C       0.84900   0.60367   0.50241
C          C       0.39633   0.24533   0.50241
C          C       0.75467   0.15100   0.50241
N          N       0.18646   0.42905   0.93632
N          N       0.57095   0.75741   0.93632
N          N       0.24259   0.81354   0.93632
N          N       0.81354   0.57095   0.93632
N          N       0.42905   0.24259   0.93632
N          N       0.75741   0.18646   0.93632
C          C       0.22446   0.43165   0.92386
C          C       0.56835   0.79281   0.92386
C          C       0.20719   0.77554   0.92386
C          C       0.77554   0.56835   0.92386
C          C       0.43165   0.20719   0.92386
C          C       0.79281   0.22446   0.92386
C          C       0.22905   0.39899   0.86645
C          C       0.60101   0.83006   0.86645
C          C       0.16994   0.77095   0.86645
C          C       0.77095   0.60101   0.86645
C          C       0.39899   0.16994   0.86645
C          C       0.83006   0.22905   0.86645
C          C       0.26702   0.40181   0.86558
C          C       0.59819   0.86521   0.86558
C          C       0.13479   0.73298   0.86558
C          C       0.73298   0.59819   0.86558
C          C       0.40181   0.13479   0.86558
C          C       0.86521   0.26702   0.86558
C          C       0.30200   0.43754   0.92058
C          C       0.56246   0.86446   0.92058
C          C       0.13554   0.69800   0.92058
C          C       0.69800   0.56246   0.92058
C          C       0.43754   0.13554   0.92058
C          C       0.86446   0.30200   0.92058
C          C       0.29761   0.47074   0.97091
C          C       0.52926   0.82687   0.97091
C          C       0.17313   0.70239   0.97091
C          C       0.70239   0.52926   0.97091
C          C       0.47074   0.17313   0.97091
C          C       0.82687   0.29761   0.97091
C          C       0.25963   0.46791   0.97163
C          C       0.53209   0.79172   0.97163
C          C       0.20828   0.74037   0.97163
C          C       0.74037   0.53209   0.97163
C          C       0.46791   0.20828   0.97163
C          C       0.79172   0.25963   0.97163
N          N       0.33908   0.43817   0.93339
N          N       0.56183   0.90091   0.93339
N          N       0.09909   0.66092   0.93339
N          N       0.66092   0.56183   0.93339
N          N       0.43817   0.09909   0.93339
N          N       0.90091   0.33908   0.93339
O          O       0.38531   0.50506   0.88496
O          O       0.49494   0.88025   0.88496
O          O       0.11975   0.61469   0.88496
O          O       0.61469   0.49494   0.88496
O          O       0.50506   0.11975   0.88496
O          O       0.88025   0.38531   0.88496
O          O       0.14859   0.36377   0.53863
O          O       0.63623   0.78482   0.53863
O          O       0.21518   0.85141   0.53863
O          O       0.85141   0.63623   0.53863
O          O       0.36377   0.21518   0.53863
O          O       0.78482   0.14859   0.53863
H          H       0.97620   0.37023   0.99108
H          H       0.62977   0.60597   0.99108
H          H       0.39403   0.02380   0.99108
H          H       0.02380   0.62977   0.99108
H          H       0.37023   0.39403   0.99108
H          H       0.60597   0.97620   0.99108
H          H       0.05539   0.49204   0.68707
H          H       0.50796   0.56335   0.68707
H          H       0.43665   0.94461   0.68707
H          H       0.94461   0.50796   0.68707
H          H       0.49204   0.43665   0.68707
H          H       0.56335   0.05539   0.68707
H          H       0.93271   0.45579   0.51260
H          H       0.54421   0.47692   0.51260
H          H       0.52308   0.06729   0.51260
H          H       0.06729   0.54421   0.51260
H          H       0.45579   0.52308   0.51260
H          H       0.47692   0.93271   0.51260
H          H       0.01803   0.35725   0.66228
H          H       0.64275   0.66078   0.66228
H          H       0.33922   0.98197   0.66228
H          H       0.98197   0.64275   0.66228
H          H       0.35725   0.33922   0.66228
H          H       0.66078   0.01803   0.66228
H          H       0.07425   0.34451   0.61399
H          H       0.65549   0.72974   0.61399
H          H       0.27026   0.92575   0.61399
H          H       0.92575   0.65549   0.61399
H          H       0.34451   0.27026   0.61399
H          H       0.72974   0.07425   0.61399
H          H       0.15238   0.47191   0.95295
H          H       0.52809   0.68047   0.95295
H          H       0.31953   0.84762   0.95295
H          H       0.84762   0.52809   0.95295
H          H       0.47191   0.31953   0.95295
H          H       0.68047   0.15238   0.95295
H          H       0.09715   0.48440   0.99809
H          H       0.51560   0.61275   0.99809
H          H       0.38725   0.90285   0.99809
H          H       0.90285   0.51560   0.99809
H          H       0.48440   0.38725   0.99809
H          H       0.61275   0.09715   0.99809
H          H       0.18626   0.45471   0.90577
H          H       0.54529   0.73155   0.90577
H          H       0.26845   0.81374   0.90577
H          H       0.81374   0.54529   0.90577
H          H       0.45471   0.26845   0.90577
H          H       0.73155   0.18626   0.90577
H          H       0.20240   0.37003   0.82283
H          H       0.62997   0.83237   0.82283
H          H       0.16763   0.79760   0.82283
H          H       0.79760   0.62997   0.82283
H          H       0.37003   0.16763   0.82283
H          H       0.83237   0.20240   0.82283
H          H       0.26843   0.37468   0.82280
H          H       0.62532   0.89375   0.82280
H          H       0.10625   0.73157   0.82280
H          H       0.73157   0.62532   0.82280
H          H       0.37468   0.10625   0.82280
H          H       0.89375   0.26843   0.82280
H          H       0.32394   0.49946   0.51857
H          H       0.50054   0.82448   0.51857
H          H       0.17552   0.67606   0.51857
H          H       0.67606   0.50054   0.51857
H          H       0.49946   0.17552   0.51857
H          H       0.82448   0.32394   0.51857
H          H       0.25796   0.49467   0.51818
H          H       0.50533   0.76329   0.51818
H          H       0.23671   0.74204   0.51818
H          H       0.74204   0.50533   0.51818
H          H       0.49467   0.23671   0.51818
H          H       0.76329   0.25796   0.51818
H          H       0.33558   0.41112   0.97044
H          H       0.58888   0.92446   0.97044
H          H       0.07554   0.66442   0.97044
H          H       0.66442   0.58888   0.97044
H          H       0.41112   0.07554   0.97044
H          H       0.92446   0.33558   0.97044
