data_crystal

_cell_length_a    20.65790
_cell_length_b    20.18390
_cell_length_c    10.35320
_cell_angle_alpha 90.00000
_cell_angle_beta  90.00000
_cell_angle_gamma 120.00000

_space_group_name_Hall 'P 1'
_space_group_name_H-M_alt 'P 1'

loop_
_symmetry_equiv_pos_as_xyz
 'x,y,z'

loop_
_atom_site_label
_atom_site_type_symbol
_atom_site_fract_x
_atom_site_fract_y
_atom_site_fract_z
C          C       0.80911   0.78819   0.32866
N          N       0.87347   0.78770   0.30677
C          C       0.94505   0.84344   0.32268
C          C       0.99786   0.83758   0.24461
C          C       0.07437   0.89372   0.24792
C          C       0.09723   0.95607   0.33468
C          C       0.04494   0.96061   0.41618
C          C       0.96929   0.90437   0.41114
N          N       0.16623   0.01779   0.33754
C          C       0.23319   0.02213   0.35276
C          C       0.43850   0.38692   0.30832
C          C       0.45958   0.32971   0.31262
C          C       0.53583   0.35202   0.30632
C          C       0.59184   0.42940   0.29328
C          C       0.57135   0.48701   0.29786
C          C       0.49503   0.46463   0.30576
C          C       0.40797   0.25065   0.31713
C          C       0.36374   0.37101   0.30329
C          C       0.62385   0.56589   0.29363
C          C       0.66521   0.44360   0.27268
C          C       0.34148   0.40267   0.20282
C          C       0.26824   0.38946   0.19683
C          C       0.21413   0.34314   0.28982
C          C       0.23612   0.30971   0.38821
C          C       0.30992   0.32405   0.39541
C          C       0.35200   0.21730   0.22188
C          C       0.29599   0.14064   0.23130
C          C       0.29531   0.09516   0.33572
C          C       0.35520   0.12613   0.42441
C          C       0.41076   0.20363   0.41584
C          C       0.67802   0.59618   0.19478
C          C       0.73751   0.67146   0.20254
C          C       0.74314   0.71854   0.30809
C          C       0.68373   0.69166   0.39749
C          C       0.62495   0.61562   0.39103
C          C       0.67870   0.40839   0.16608
C          C       0.74947   0.41696   0.14618
C          C       0.80898   0.46179   0.23140
C          C       0.79685   0.50081   0.33356
C          C       0.72539   0.49113   0.35479
C          C       0.87760   0.46415   0.21688
N          N       0.87520   0.39754   0.18735
C          C       0.93339   0.38553   0.17346
C          C       0.92552   0.31788   0.22699
C          C       0.98576   0.30442   0.22501
C          C       0.05474   0.35848   0.16947
C          C       0.06108   0.42355   0.10437
C          C       0.99995   0.43651   0.10843
N          N       0.11550   0.35003   0.17914
C          C       0.14166   0.33347   0.28753
C          C       0.12913   0.48070   0.03396
O          O       0.80654   0.84554   0.36830
H          H       0.97997   0.79216   0.18255
C          C       0.12680   0.88752   0.15708
H          H       0.06141   0.00531   0.47930
O          O       0.24050   0.96641   0.38528
H          H       0.55088   0.31060   0.30822
H          H       0.48014   0.50613   0.30756
H          H       0.37860   0.43605   0.13288
H          H       0.25583   0.41533   0.12383
H          H       0.19881   0.27502   0.45674
H          H       0.32407   0.30016   0.46886
H          H       0.35085   0.24886   0.14600
H          H       0.25508   0.11880   0.16206
H          H       0.35753   0.09350   0.49796
H          H       0.45233   0.22578   0.48378
H          H       0.67581   0.56306   0.11839
H          H       0.77755   0.69086   0.13187
H          H       0.68426   0.72588   0.47096
H          H       0.58433   0.59634   0.46063
H          H       0.63686   0.37554   0.10226
H          H       0.75681   0.38960   0.06908
H          H       0.83929   0.53494   0.39533
H          H       0.71753   0.51830   0.43129
O          O       0.93766   0.52497   0.23873
H          H       0.87646   0.27870   0.26993
H          H       0.97902   0.25516   0.26554
H          H       0.00386   0.48363   0.06378
O          O       0.10369   0.31378   0.38945
H          H       0.11499   0.48358   0.43325
H          H       0.17407   0.46736   0.03449
H          H       0.15051   0.53704   0.07783
H          H       0.86743   0.74027   0.27209
H          H       0.16774   0.06645   0.32895
H          H       0.82591   0.35242   0.18189
H          H       0.14573   0.36187   0.10208
H          H       0.93275   0.90849   0.47245
H          H       0.09773   0.84482   0.08182
H          H       0.16237   0.87110   0.20937
H          H       0.16160   0.94227   0.10934
C          C       0.80911   0.78819   0.82865
N          N       0.87347   0.78770   0.80677
C          C       0.94505   0.84344   0.82268
C          C       0.99786   0.83758   0.74461
C          C       0.07437   0.89372   0.74792
C          C       0.09723   0.95607   0.83468
C          C       0.04494   0.96061   0.91617
C          C       0.96929   0.90437   0.91114
N          N       0.16623   0.01779   0.83754
C          C       0.23319   0.02213   0.85276
C          C       0.43850   0.38692   0.80832
C          C       0.45958   0.32971   0.81262
C          C       0.53583   0.35202   0.80632
C          C       0.59184   0.42940   0.79328
C          C       0.57135   0.48701   0.79786
C          C       0.49503   0.46463   0.80576
C          C       0.40797   0.25065   0.81713
C          C       0.36374   0.37101   0.80328
C          C       0.62385   0.56589   0.79363
C          C       0.66521   0.44360   0.77268
C          C       0.34148   0.40267   0.70282
C          C       0.26824   0.38946   0.69683
C          C       0.21413   0.34314   0.78982
C          C       0.23612   0.30971   0.88821
C          C       0.30992   0.32405   0.89541
C          C       0.35200   0.21730   0.72188
C          C       0.29599   0.14064   0.73130
C          C       0.29531   0.09516   0.83572
C          C       0.35520   0.12613   0.92441
C          C       0.41076   0.20363   0.91583
C          C       0.67802   0.59618   0.69478
C          C       0.73751   0.67146   0.70254
C          C       0.74314   0.71854   0.80809
C          C       0.68373   0.69166   0.89749
C          C       0.62495   0.61562   0.89103
C          C       0.67870   0.40839   0.66608
C          C       0.74947   0.41696   0.64618
C          C       0.80898   0.46179   0.73140
C          C       0.79685   0.50081   0.83356
C          C       0.72539   0.49113   0.85479
C          C       0.87760   0.46415   0.71688
N          N       0.87520   0.39754   0.68735
C          C       0.93339   0.38553   0.67346
C          C       0.92552   0.31788   0.72699
C          C       0.98576   0.30442   0.72501
C          C       0.05474   0.35848   0.66947
C          C       0.06108   0.42355   0.60437
C          C       0.99995   0.43651   0.60843
N          N       0.11550   0.35003   0.67914
C          C       0.14166   0.33347   0.78753
C          C       0.12913   0.48070   0.53396
O          O       0.80654   0.84554   0.86830
H          H       0.97997   0.79216   0.68255
C          C       0.12680   0.88752   0.65708
H          H       0.06141   0.00531   0.97930
O          O       0.24050   0.96641   0.88528
H          H       0.55088   0.31060   0.80822
H          H       0.48014   0.50613   0.80756
H          H       0.37860   0.43605   0.63287
H          H       0.25583   0.41533   0.62383
H          H       0.19881   0.27502   0.95673
H          H       0.32407   0.30016   0.96886
H          H       0.35085   0.24886   0.64600
H          H       0.25508   0.11880   0.66206
H          H       0.35753   0.09350   0.99796
H          H       0.45233   0.22578   0.98377
H          H       0.67581   0.56306   0.61840
H          H       0.77755   0.69086   0.63187
H          H       0.68426   0.72588   0.97096
H          H       0.58433   0.59634   0.96063
H          H       0.63686   0.37554   0.60226
H          H       0.75681   0.38960   0.56908
H          H       0.83929   0.53494   0.89533
H          H       0.71753   0.51830   0.93129
O          O       0.93766   0.52497   0.73873
H          H       0.87646   0.27870   0.76993
H          H       0.97902   0.25516   0.76554
H          H       0.00386   0.48363   0.56378
O          O       0.10369   0.31378   0.88945
H          H       0.11499   0.48358   0.93326
H          H       0.17407   0.46736   0.53449
H          H       0.15051   0.53704   0.57783
H          H       0.86743   0.74027   0.77209
H          H       0.16774   0.06645   0.82895
H          H       0.82591   0.35242   0.68189
H          H       0.14573   0.36187   0.60208
H          H       0.93275   0.90849   0.97245
H          H       0.09773   0.84482   0.58182
H          H       0.16237   0.87110   0.70937
H          H       0.16160   0.94227   0.60933
