data_crystal

_cell_length_a    37.70120
_cell_length_b    37.70120
_cell_length_c    7.23920
_cell_angle_alpha 90.00000
_cell_angle_beta  90.00000
_cell_angle_gamma 120.00000

_space_group_name_Hall 'P 1'
_space_group_name_H-M_alt 'P 1'

loop_
_symmetry_equiv_pos_as_xyz
 'x,y,z'

loop_
_atom_site_label
_atom_site_type_symbol
_atom_site_fract_x
_atom_site_fract_y
_atom_site_fract_z
C          C       0.69790   0.52423   0.05571
C          C       0.47577   0.17367   0.05571
C          C       0.82633   0.30210   0.05571
C          C       0.30210   0.47577   0.05571
C          C       0.52423   0.82633   0.05571
C          C       0.17367   0.69790   0.05571
C          C       0.73514   0.52547   0.06468
C          C       0.47453   0.20967   0.06468
C          C       0.79033   0.26486   0.06468
C          C       0.26486   0.47453   0.06468
C          C       0.52547   0.79033   0.06468
C          C       0.20967   0.73514   0.06468
C          C       0.77160   0.56237   0.09666
C          C       0.43763   0.20923   0.09666
C          C       0.79077   0.22840   0.09666
C          C       0.22840   0.43763   0.09666
C          C       0.56237   0.79077   0.09666
C          C       0.20923   0.77160   0.09666
C          C       0.76908   0.59783   0.12843
C          C       0.40217   0.17125   0.12843
C          C       0.82875   0.23092   0.12843
C          C       0.23092   0.40217   0.12843
C          C       0.59783   0.82875   0.12843
C          C       0.17125   0.76908   0.12843
C          C       0.73183   0.59657   0.12003
C          C       0.40343   0.13526   0.12003
C          C       0.86474   0.26817   0.12003
C          C       0.26817   0.40343   0.12003
C          C       0.59657   0.86474   0.12003
C          C       0.13526   0.73183   0.12003
C          C       0.69558   0.56002   0.07973
C          C       0.43998   0.13556   0.07973
C          C       0.86444   0.30442   0.07973
C          C       0.30442   0.43998   0.07973
C          C       0.56002   0.86444   0.07973
C          C       0.13556   0.69558   0.07973
N          N       0.65928   0.56105   0.05712
N          N       0.43895   0.09823   0.05712
N          N       0.90177   0.34072   0.05712
N          N       0.34072   0.43895   0.05712
N          N       0.56105   0.90177   0.05712
N          N       0.09823   0.65928   0.05712
N          N       0.80881   0.56267   0.08928
N          N       0.43733   0.24614   0.08928
N          N       0.75386   0.19119   0.08928
N          N       0.19119   0.43733   0.08928
N          N       0.56267   0.75386   0.08928
N          N       0.24614   0.80881   0.08928
C          C       0.62312   0.53109   0.01832
C          C       0.46891   0.09203   0.01832
C          C       0.90797   0.37688   0.01832
C          C       0.37688   0.46891   0.01832
C          C       0.53109   0.90797   0.01832
C          C       0.09203   0.62312   0.01832
C          C       0.84422   0.59392   0.05083
C          C       0.40608   0.25030   0.05083
C          C       0.74970   0.15578   0.05083
C          C       0.15578   0.40608   0.05083
C          C       0.59392   0.74970   0.05083
C          C       0.25030   0.84422   0.05083
C          C       0.87781   0.58695   0.01051
C          C       0.41305   0.29086   0.01051
C          C       0.70914   0.12219   0.01051
C          C       0.12219   0.41305   0.01051
C          C       0.58695   0.70914   0.01051
C          C       0.29086   0.87781   0.01051
C          C       0.87417   0.54804   0.02592
C          C       0.45196   0.32613   0.02592
C          C       0.67387   0.12583   0.02592
C          C       0.12583   0.45196   0.02592
C          C       0.54804   0.67387   0.02592
C          C       0.32613   0.87417   0.02592
C          C       0.90600   0.54173   0.48325
C          C       0.45827   0.36427   0.48325
C          C       0.63573   0.09400   0.48325
C          C       0.09400   0.45827   0.48325
C          C       0.54173   0.63573   0.48325
C          C       0.36427   0.90600   0.48325
C          C       0.94459   0.57484   0.42390
C          C       0.42516   0.36975   0.42390
C          C       0.63025   0.05541   0.42390
C          C       0.05541   0.42516   0.42390
C          C       0.57484   0.63025   0.42390
C          C       0.36975   0.94459   0.42390
C          C       0.94811   0.61426   0.41021
C          C       0.38574   0.33385   0.41021
C          C       0.66615   0.05189   0.41021
C          C       0.05189   0.38574   0.41021
C          C       0.61426   0.66615   0.41021
C          C       0.33385   0.94811   0.41021
C          C       0.91570   0.61974   0.45280
C          C       0.38026   0.29596   0.45280
C          C       0.70404   0.08430   0.45280
C          C       0.08430   0.38026   0.45280
C          C       0.61974   0.70404   0.45280
C          C       0.29596   0.91570   0.45280
C          C       0.97899   0.56906   0.39488
C          C       0.43094   0.40993   0.39488
C          C       0.59007   0.02101   0.39488
C          C       0.02101   0.43094   0.39488
C          C       0.56906   0.59007   0.39488
C          C       0.40993   0.97899   0.39488
C          C       0.97365   0.53097   0.34011
C          C       0.46903   0.44268   0.34011
C          C       0.55732   0.02635   0.34011
C          C       0.02635   0.46903   0.34011
C          C       0.53097   0.55732   0.34011
C          C       0.44268   0.97365   0.34011
C          C       0.00464   0.52099   0.36174
C          C       0.47901   0.48365   0.36174
C          C       0.51635   0.99536   0.36174
C          C       0.99536   0.47901   0.36174
C          C       0.52099   0.51635   0.36174
C          C       0.48365   0.00464   0.36174
C          C       0.04395   0.55321   0.41574
C          C       0.44679   0.49074   0.41574
C          C       0.50926   0.95605   0.41574
C          C       0.95605   0.44679   0.41574
C          C       0.55321   0.50926   0.41574
C          C       0.49074   0.04395   0.41574
C          C       0.05151   0.59221   0.45935
C          C       0.40779   0.45930   0.45935
C          C       0.54070   0.94849   0.45935
C          C       0.94849   0.40779   0.45935
C          C       0.59221   0.54070   0.45935
C          C       0.45930   0.05151   0.45935
C          C       0.01902   0.59964   0.44774
C          C       0.40036   0.41938   0.44774
C          C       0.58062   0.98098   0.44774
C          C       0.98098   0.40036   0.44774
C          C       0.59964   0.58062   0.44774
C          C       0.41938   0.01902   0.44774
H          H       0.67046   0.49489   0.02336
H          H       0.50511   0.17557   0.02336
H          H       0.82443   0.32954   0.02336
H          H       0.32954   0.50511   0.02336
H          H       0.49489   0.82443   0.02336
H          H       0.17557   0.67046   0.02336
H          H       0.73610   0.49722   0.03929
H          H       0.50278   0.23888   0.03929
H          H       0.76112   0.26390   0.03929
H          H       0.26390   0.50278   0.03929
H          H       0.49722   0.76112   0.03929
H          H       0.23888   0.73610   0.03929
H          H       0.79676   0.62730   0.15655
H          H       0.37270   0.16946   0.15655
H          H       0.83054   0.20324   0.15655
H          H       0.20324   0.37270   0.15655
H          H       0.62730   0.83054   0.15655
H          H       0.16946   0.79676   0.15655
H          H       0.73097   0.62502   0.14039
H          H       0.37498   0.10595   0.14039
H          H       0.89405   0.26903   0.14039
H          H       0.26903   0.37498   0.14039
H          H       0.62502   0.89405   0.14039
H          H       0.10595   0.73097   0.14039
H          H       0.61524   0.49880   0.01399
H          H       0.50120   0.11644   0.01399
H          H       0.88356   0.38476   0.01399
H          H       0.38476   0.50120   0.01399
H          H       0.49880   0.88356   0.01399
H          H       0.11644   0.61524   0.01399
H          H       0.84952   0.62514   0.03130
H          H       0.37486   0.22438   0.03130
H          H       0.77562   0.15048   0.03130
H          H       0.15048   0.37486   0.03130
H          H       0.62514   0.77562   0.03130
H          H       0.22438   0.84952   0.03130
H          H       0.84538   0.52159   0.07307
H          H       0.47841   0.32379   0.07307
H          H       0.67621   0.15462   0.07307
H          H       0.15462   0.47841   0.07307
H          H       0.52159   0.67621   0.07307
H          H       0.32379   0.84538   0.07307
H          H       0.90206   0.51108   0.00246
H          H       0.48892   0.39098   0.00246
H          H       0.60902   0.09794   0.00246
H          H       0.09794   0.48892   0.00246
H          H       0.51108   0.60902   0.00246
H          H       0.39098   0.90206   0.00246
H          H       0.97713   0.64059   0.36431
H          H       0.35941   0.33654   0.36431
H          H       0.66346   0.02287   0.36431
H          H       0.02287   0.35941   0.36431
H          H       0.64059   0.66346   0.36431
H          H       0.33654   0.97713   0.36431
H          H       0.91987   0.65060   0.43859
H          H       0.34940   0.26927   0.43859
H          H       0.73073   0.08013   0.43859
H          H       0.08013   0.34940   0.43859
H          H       0.65060   0.73073   0.43859
H          H       0.26927   0.91987   0.43859
H          H       0.94288   0.50690   0.29927
H          H       0.49310   0.43598   0.29927
H          H       0.56402   0.05712   0.29927
H          H       0.05712   0.49310   0.29927
H          H       0.50690   0.56402   0.29927
H          H       0.43598   0.94288   0.29927
H          H       0.06856   0.54615   0.43708
H          H       0.45385   0.52241   0.43708
H          H       0.47759   0.93144   0.43708
H          H       0.93144   0.45385   0.43708
H          H       0.54615   0.47759   0.43708
H          H       0.52241   0.06856   0.43708
H          H       0.02326   0.62926   0.49344
H          H       0.37074   0.39400   0.49344
H          H       0.60600   0.97674   0.49344
H          H       0.97674   0.37074   0.49344
H          H       0.62926   0.60600   0.49344
H          H       0.39400   0.02326   0.49344
C          C       0.69790   0.52423   0.55571
C          C       0.47577   0.17367   0.55571
C          C       0.82633   0.30210   0.55571
C          C       0.30210   0.47577   0.55571
C          C       0.52423   0.82633   0.55571
C          C       0.17367   0.69790   0.55571
C          C       0.73514   0.52547   0.56468
C          C       0.47453   0.20967   0.56468
C          C       0.79033   0.26486   0.56468
C          C       0.26486   0.47453   0.56468
C          C       0.52547   0.79033   0.56468
C          C       0.20967   0.73514   0.56468
C          C       0.77160   0.56237   0.59666
C          C       0.43763   0.20923   0.59666
C          C       0.79077   0.22840   0.59666
C          C       0.22840   0.43763   0.59666
C          C       0.56237   0.79077   0.59666
C          C       0.20923   0.77160   0.59666
C          C       0.76908   0.59783   0.62843
C          C       0.40217   0.17125   0.62843
C          C       0.82875   0.23092   0.62843
C          C       0.23092   0.40217   0.62843
C          C       0.59783   0.82875   0.62843
C          C       0.17125   0.76908   0.62843
C          C       0.73183   0.59657   0.62004
C          C       0.40343   0.13526   0.62004
C          C       0.86474   0.26817   0.62004
C          C       0.26817   0.40343   0.62004
C          C       0.59657   0.86474   0.62004
C          C       0.13526   0.73183   0.62004
C          C       0.69558   0.56002   0.57973
C          C       0.43998   0.13556   0.57973
C          C       0.86444   0.30442   0.57973
C          C       0.30442   0.43998   0.57973
C          C       0.56002   0.86444   0.57973
C          C       0.13556   0.69558   0.57973
N          N       0.65928   0.56105   0.55712
N          N       0.43895   0.09823   0.55712
N          N       0.90177   0.34072   0.55712
N          N       0.34072   0.43895   0.55712
N          N       0.56105   0.90177   0.55712
N          N       0.09823   0.65928   0.55712
N          N       0.80881   0.56267   0.58928
N          N       0.43733   0.24614   0.58928
N          N       0.75386   0.19119   0.58928
N          N       0.19119   0.43733   0.58928
N          N       0.56267   0.75386   0.58928
N          N       0.24614   0.80881   0.58928
C          C       0.62312   0.53109   0.51832
C          C       0.46891   0.09203   0.51832
C          C       0.90797   0.37688   0.51832
C          C       0.37688   0.46891   0.51832
C          C       0.53109   0.90797   0.51832
C          C       0.09203   0.62312   0.51832
C          C       0.84422   0.59392   0.55083
C          C       0.40608   0.25030   0.55083
C          C       0.74970   0.15578   0.55083
C          C       0.15578   0.40608   0.55083
C          C       0.59392   0.74970   0.55083
C          C       0.25030   0.84422   0.55083
C          C       0.87781   0.58695   0.51051
C          C       0.41305   0.29086   0.51051
C          C       0.70914   0.12219   0.51051
C          C       0.12219   0.41305   0.51051
C          C       0.58695   0.70914   0.51051
C          C       0.29086   0.87781   0.51051
C          C       0.87417   0.54804   0.52592
C          C       0.45196   0.32613   0.52592
C          C       0.67387   0.12583   0.52592
C          C       0.12583   0.45196   0.52592
C          C       0.54804   0.67387   0.52592
C          C       0.32613   0.87417   0.52592
C          C       0.90600   0.54173   0.98325
C          C       0.45827   0.36427   0.98325
C          C       0.63573   0.09400   0.98325
C          C       0.09400   0.45827   0.98325
C          C       0.54173   0.63573   0.98325
C          C       0.36427   0.90600   0.98325
C          C       0.94459   0.57484   0.92390
C          C       0.42516   0.36975   0.92390
C          C       0.63025   0.05541   0.92390
C          C       0.05541   0.42516   0.92390
C          C       0.57484   0.63025   0.92390
C          C       0.36975   0.94459   0.92390
C          C       0.94811   0.61426   0.91021
C          C       0.38574   0.33385   0.91021
C          C       0.66615   0.05189   0.91021
C          C       0.05189   0.38574   0.91021
C          C       0.61426   0.66615   0.91021
C          C       0.33385   0.94811   0.91021
C          C       0.91570   0.61974   0.95279
C          C       0.38026   0.29596   0.95279
C          C       0.70404   0.08430   0.95279
C          C       0.08430   0.38026   0.95279
C          C       0.61974   0.70404   0.95279
C          C       0.29596   0.91570   0.95279
C          C       0.97899   0.56906   0.89488
C          C       0.43094   0.40993   0.89488
C          C       0.59007   0.02101   0.89488
C          C       0.02101   0.43094   0.89488
C          C       0.56906   0.59007   0.89488
C          C       0.40993   0.97899   0.89488
C          C       0.97365   0.53097   0.84011
C          C       0.46903   0.44268   0.84011
C          C       0.55732   0.02635   0.84011
C          C       0.02635   0.46903   0.84011
C          C       0.53097   0.55732   0.84011
C          C       0.44268   0.97365   0.84011
C          C       0.00464   0.52099   0.86174
C          C       0.47901   0.48365   0.86174
C          C       0.51635   0.99536   0.86174
C          C       0.99536   0.47901   0.86174
C          C       0.52099   0.51635   0.86174
C          C       0.48365   0.00464   0.86174
C          C       0.04395   0.55321   0.91574
C          C       0.44679   0.49074   0.91574
C          C       0.50926   0.95605   0.91574
C          C       0.95605   0.44679   0.91574
C          C       0.55321   0.50926   0.91574
C          C       0.49074   0.04395   0.91574
C          C       0.05151   0.59221   0.95935
C          C       0.40779   0.45930   0.95935
C          C       0.54070   0.94849   0.95935
C          C       0.94849   0.40779   0.95935
C          C       0.59221   0.54070   0.95935
C          C       0.45930   0.05151   0.95935
C          C       0.01902   0.59964   0.94775
C          C       0.40036   0.41938   0.94775
C          C       0.58062   0.98098   0.94775
C          C       0.98098   0.40036   0.94775
C          C       0.59964   0.58062   0.94775
C          C       0.41938   0.01902   0.94775
H          H       0.67046   0.49489   0.52336
H          H       0.50511   0.17557   0.52336
H          H       0.82443   0.32954   0.52336
H          H       0.32954   0.50511   0.52336
H          H       0.49489   0.82443   0.52336
H          H       0.17557   0.67046   0.52336
H          H       0.73610   0.49722   0.53929
H          H       0.50278   0.23888   0.53929
H          H       0.76112   0.26390   0.53929
H          H       0.26390   0.50278   0.53929
H          H       0.49722   0.76112   0.53929
H          H       0.23888   0.73610   0.53929
H          H       0.79676   0.62730   0.65655
H          H       0.37270   0.16946   0.65655
H          H       0.83054   0.20324   0.65655
H          H       0.20324   0.37270   0.65655
H          H       0.62730   0.83054   0.65655
H          H       0.16946   0.79676   0.65655
H          H       0.73097   0.62502   0.64039
H          H       0.37498   0.10595   0.64039
H          H       0.89405   0.26903   0.64039
H          H       0.26903   0.37498   0.64039
H          H       0.62502   0.89405   0.64039
H          H       0.10595   0.73097   0.64039
H          H       0.61524   0.49880   0.51399
H          H       0.50120   0.11644   0.51399
H          H       0.88356   0.38476   0.51399
H          H       0.38476   0.50120   0.51399
H          H       0.49880   0.88356   0.51399
H          H       0.11644   0.61524   0.51399
H          H       0.84952   0.62514   0.53130
H          H       0.37486   0.22438   0.53130
H          H       0.77562   0.15048   0.53130
H          H       0.15048   0.37486   0.53130
H          H       0.62514   0.77562   0.53130
H          H       0.22438   0.84952   0.53130
H          H       0.84538   0.52159   0.57307
H          H       0.47841   0.32379   0.57307
H          H       0.67621   0.15462   0.57307
H          H       0.15462   0.47841   0.57307
H          H       0.52159   0.67621   0.57307
H          H       0.32379   0.84538   0.57307
H          H       0.90206   0.51108   0.50246
H          H       0.48892   0.39098   0.50246
H          H       0.60902   0.09794   0.50246
H          H       0.09794   0.48892   0.50246
H          H       0.51108   0.60902   0.50246
H          H       0.39098   0.90206   0.50246
H          H       0.97713   0.64059   0.86432
H          H       0.35941   0.33654   0.86432
H          H       0.66346   0.02287   0.86432
H          H       0.02287   0.35941   0.86432
H          H       0.64059   0.66346   0.86432
H          H       0.33654   0.97713   0.86432
H          H       0.91987   0.65060   0.93859
H          H       0.34940   0.26927   0.93859
H          H       0.73073   0.08013   0.93859
H          H       0.08013   0.34940   0.93859
H          H       0.65060   0.73073   0.93859
H          H       0.26927   0.91987   0.93859
H          H       0.94288   0.50690   0.79927
H          H       0.49310   0.43598   0.79927
H          H       0.56402   0.05712   0.79927
H          H       0.05712   0.49310   0.79927
H          H       0.50690   0.56402   0.79927
H          H       0.43598   0.94288   0.79927
H          H       0.06856   0.54615   0.93707
H          H       0.45385   0.52241   0.93707
H          H       0.47759   0.93144   0.93707
H          H       0.93144   0.45385   0.93707
H          H       0.54615   0.47759   0.93707
H          H       0.52241   0.06856   0.93707
H          H       0.02326   0.62926   0.99344
H          H       0.37074   0.39400   0.99344
H          H       0.60600   0.97674   0.99344
H          H       0.97674   0.37074   0.99344
H          H       0.62926   0.60600   0.99344
H          H       0.39400   0.02326   0.99344
