data_crystal

_cell_length_a    48.15230
_cell_length_b    34.12940
_cell_length_c    7.71900
_cell_angle_alpha 90.00000
_cell_angle_beta  90.00000
_cell_angle_gamma 90.00000

_space_group_name_Hall 'P 1'
_space_group_name_H-M_alt 'P 1'

loop_
_symmetry_equiv_pos_as_xyz
 'x,y,z'

loop_
_atom_site_label
_atom_site_type_symbol
_atom_site_fract_x
_atom_site_fract_y
_atom_site_fract_z
C          C       0.55224   0.60595   0.23614
C          C       0.44776   0.60595   0.26386
C          C       0.57822   0.59428   0.31407
C          C       0.42178   0.59428   0.18593
C          C       0.60272   0.61601   0.30623
C          C       0.39728   0.61601   0.19377
C          C       0.60522   0.65300   0.22356
C          C       0.39478   0.65300   0.27644
C          C       0.57950   0.66484   0.14971
C          C       0.42050   0.66484   0.35030
C          C       0.55496   0.64350   0.15428
C          C       0.44504   0.64350   0.34572
C          C       0.62988   0.67983   0.20722
C          C       0.37012   0.67983   0.29278
N          N       0.65613   0.67227   0.25182
N          N       0.34387   0.67227   0.24818
C          C       0.68232   0.69483   0.24613
C          C       0.31768   0.69483   0.25387
C          C       0.70864   0.67620   0.24958
C          C       0.29136   0.67620   0.25042
C          C       0.73398   0.69577   0.24605
C          C       0.26602   0.69577   0.25395
C          C       0.73658   0.73757   0.24227
C          C       0.26342   0.73757   0.25773
C          C       0.70990   0.75633   0.23956
C          C       0.29010   0.75633   0.26044
C          C       0.68468   0.73625   0.24027
C          C       0.31532   0.73625   0.25973
C          C       0.97369   0.08406   0.23839
C          C       0.02631   0.08406   0.26161
C          C       0.97524   0.04211   0.22779
C          C       0.02476   0.04211   0.27221
C          C       0.94949   0.01879   0.19076
C          C       0.05051   0.01879   0.30924
C          C       0.05228   0.10702   0.26443
C          C       0.94772   0.10702   0.23557
C          C       0.07813   0.09615   0.18250
C          C       0.92187   0.09615   0.31750
C          C       0.10259   0.11793   0.19176
C          C       0.89741   0.11793   0.30824
C          C       0.10517   0.15424   0.27986
C          C       0.89483   0.15424   0.22014
C          C       0.07951   0.16549   0.35659
C          C       0.92049   0.16549   0.14341
C          C       0.05499   0.14413   0.35028
C          C       0.94501   0.14413   0.14972
C          C       0.12991   0.18078   0.30023
C          C       0.87009   0.18078   0.19977
N          N       0.15569   0.17468   0.24247
N          N       0.84431   0.17468   0.25753
C          C       0.18198   0.19697   0.25010
C          C       0.81802   0.19697   0.24990
C          C       0.20741   0.18081   0.19101
C          C       0.79259   0.18081   0.30899
C          C       0.23282   0.20019   0.19449
C          C       0.76718   0.20019   0.30551
C          C       0.23637   0.23941   0.25664
C          C       0.76363   0.23941   0.24337
C          C       0.21057   0.25573   0.31572
C          C       0.78943   0.25573   0.18428
C          C       0.18531   0.23575   0.31310
C          C       0.81469   0.23575   0.18690
C          C       0.47378   0.58343   0.26076
C          C       0.52622   0.58343   0.23924
C          C       0.47504   0.54119   0.27382
C          C       0.52496   0.54119   0.22618
C          C       0.45148   0.51910   0.32001
C          C       0.54852   0.51910   0.17999
C          C       0.44776   0.39212   0.26385
C          C       0.55224   0.39212   0.23615
C          C       0.42178   0.40379   0.18593
C          C       0.57822   0.40379   0.31407
C          C       0.39728   0.38205   0.19376
C          C       0.60272   0.38205   0.30624
C          C       0.39478   0.34507   0.27642
C          C       0.60522   0.34507   0.22358
C          C       0.42050   0.33322   0.35026
C          C       0.57950   0.33322   0.14974
C          C       0.44504   0.35456   0.34570
C          C       0.55496   0.35456   0.15430
C          C       0.37012   0.31823   0.29273
C          C       0.62988   0.31823   0.20727
N          N       0.34387   0.32580   0.24821
N          N       0.65613   0.32580   0.25179
C          C       0.31768   0.30324   0.25389
C          C       0.68232   0.30324   0.24611
C          C       0.29136   0.32187   0.25081
C          C       0.70864   0.32187   0.24919
C          C       0.26602   0.30229   0.25433
C          C       0.73398   0.30229   0.24567
C          C       0.26342   0.26049   0.25774
C          C       0.73658   0.26049   0.24226
C          C       0.29010   0.24174   0.26009
C          C       0.70990   0.24174   0.23991
C          C       0.31532   0.26181   0.25938
C          C       0.68468   0.26181   0.24062
C          C       0.02631   0.91401   0.26161
C          C       0.97369   0.91401   0.23839
C          C       0.02476   0.95595   0.27220
C          C       0.97524   0.95595   0.22780
C          C       0.05051   0.97927   0.30923
C          C       0.94949   0.97927   0.19077
C          C       0.94772   0.89104   0.23558
C          C       0.05228   0.89104   0.26443
C          C       0.92187   0.90192   0.31750
C          C       0.07813   0.90192   0.18250
C          C       0.89741   0.88014   0.30824
C          C       0.10259   0.88014   0.19176
C          C       0.89483   0.84382   0.22015
C          C       0.10517   0.84382   0.27985
C          C       0.92049   0.83258   0.14342
C          C       0.07951   0.83258   0.35658
C          C       0.94501   0.85394   0.14973
C          C       0.05499   0.85394   0.35027
C          C       0.87009   0.81728   0.19979
C          C       0.12991   0.81728   0.30021
N          N       0.84431   0.82339   0.25751
N          N       0.15569   0.82339   0.24249
C          C       0.81802   0.80110   0.24990
C          C       0.18198   0.80110   0.25011
C          C       0.79258   0.81726   0.30884
C          C       0.20742   0.81726   0.19116
C          C       0.76717   0.79789   0.30535
C          C       0.23283   0.79789   0.19465
C          C       0.76363   0.75865   0.24336
C          C       0.23637   0.75865   0.25664
C          C       0.78943   0.74232   0.18443
C          C       0.21057   0.74232   0.31557
C          C       0.81469   0.76230   0.18704
C          C       0.18531   0.76230   0.31296
C          C       0.52622   0.41464   0.23925
C          C       0.47378   0.41464   0.26075
C          C       0.52496   0.45688   0.22617
C          C       0.47504   0.45688   0.27383
C          C       0.54852   0.47897   0.17999
C          C       0.45148   0.47897   0.32001
H          H       0.57883   0.56649   0.38650
H          H       0.42117   0.56649   0.11350
H          H       0.62103   0.60368   0.37197
H          H       0.37897   0.60368   0.12803
H          H       0.57858   0.69296   0.07991
H          H       0.42142   0.69296   0.42009
H          H       0.53677   0.65584   0.08721
H          H       0.46323   0.65584   0.41280
H          H       0.62447   0.70823   0.14880
H          H       0.37553   0.70823   0.35120
H          H       0.70921   0.64398   0.25490
H          H       0.29079   0.64398   0.24510
H          H       0.75301   0.67791   0.25011
H          H       0.24699   0.67791   0.24989
H          H       0.70914   0.78857   0.23542
H          H       0.29086   0.78857   0.26458
H          H       0.66554   0.75384   0.23804
H          H       0.33446   0.75384   0.26196
H          H       0.93133   0.03567   0.15398
H          H       0.06867   0.03567   0.34602
H          H       0.07870   0.06890   0.10615
H          H       0.92130   0.06890   0.39385
H          H       0.12082   0.10610   0.12343
H          H       0.87918   0.10610   0.37657
H          H       0.07865   0.19306   0.43049
H          H       0.92135   0.19306   0.06951
H          H       0.03687   0.15589   0.42017
H          H       0.96313   0.15589   0.07983
H          H       0.12498   0.20759   0.37318
H          H       0.87502   0.20759   0.12682
H          H       0.20718   0.15086   0.13808
H          H       0.79282   0.15086   0.36192
H          H       0.25104   0.18456   0.14276
H          H       0.74896   0.18456   0.35724
H          H       0.21064   0.28568   0.36895
H          H       0.78936   0.28568   0.13105
H          H       0.16697   0.25126   0.36323
H          H       0.83303   0.25126   0.13677
H          H       0.43205   0.53388   0.35559
H          H       0.56795   0.53388   0.14441
H          H       0.37897   0.39439   0.12804
H          H       0.62103   0.39439   0.37197
H          H       0.42142   0.30510   0.42004
H          H       0.57858   0.30510   0.07996
H          H       0.46324   0.34222   0.41276
H          H       0.53676   0.34222   0.08724
H          H       0.37553   0.28982   0.35107
H          H       0.62447   0.28982   0.14893
H          H       0.29079   0.35409   0.24579
H          H       0.70921   0.35409   0.25421
H          H       0.24699   0.32016   0.25057
H          H       0.75301   0.32016   0.24943
H          H       0.29087   0.20949   0.26391
H          H       0.70913   0.20949   0.23609
H          H       0.33447   0.24422   0.26130
H          H       0.66553   0.24422   0.23870
H          H       0.87918   0.89196   0.37657
H          H       0.12082   0.89196   0.12343
H          H       0.92135   0.80500   0.06953
H          H       0.07865   0.80500   0.43047
H          H       0.96313   0.84217   0.07984
H          H       0.03687   0.84217   0.42016
H          H       0.87502   0.79047   0.12687
H          H       0.12498   0.79047   0.37313
H          H       0.79281   0.84723   0.36165
H          H       0.20719   0.84723   0.13835
H          H       0.74895   0.81353   0.35696
H          H       0.25105   0.81353   0.14304
H          H       0.78936   0.71236   0.13133
H          H       0.21064   0.71236   0.36867
H          H       0.83304   0.74678   0.13703
H          H       0.16696   0.74678   0.36297
H          H       0.57883   0.43157   0.38649
H          H       0.42117   0.43157   0.11351
H          H       0.93133   0.96239   0.15398
H          H       0.06867   0.96239   0.34602
H          H       0.92130   0.92917   0.39385
H          H       0.07870   0.92917   0.10615
H          H       0.56795   0.46419   0.14441
H          H       0.43205   0.46419   0.35559
C          C       0.00000   0.02040   0.25000
C          C       0.00000   0.97766   0.25000
C          C       0.00000   0.10297   0.25000
C          C       0.00000   0.89509   0.25000
H          H       0.00000   0.13525   0.25000
H          H       0.00000   0.86281   0.25000
C          C       0.50000   0.51987   0.25000
C          C       0.50000   0.47820   0.25000
C          C       0.50000   0.60223   0.25000
C          C       0.50000   0.39584   0.25000
H          H       0.50000   0.63450   0.25000
H          H       0.50000   0.36357   0.25000
C          C       0.55224   0.60595   0.73614
C          C       0.44776   0.60595   0.76385
C          C       0.57822   0.59428   0.81407
C          C       0.42178   0.59428   0.68593
C          C       0.60272   0.61601   0.80624
C          C       0.39728   0.61601   0.69377
C          C       0.60522   0.65300   0.72355
C          C       0.39478   0.65300   0.77645
C          C       0.57950   0.66484   0.64970
C          C       0.42050   0.66484   0.85030
C          C       0.55496   0.64350   0.65428
C          C       0.44504   0.64350   0.84572
C          C       0.62988   0.67983   0.70722
C          C       0.37012   0.67983   0.79278
N          N       0.65613   0.67227   0.75182
N          N       0.34387   0.67227   0.74818
C          C       0.68232   0.69483   0.74613
C          C       0.31768   0.69483   0.75387
C          C       0.70864   0.67620   0.74958
C          C       0.29136   0.67620   0.75042
C          C       0.73398   0.69577   0.74605
C          C       0.26602   0.69577   0.75396
C          C       0.73658   0.73757   0.74227
C          C       0.26342   0.73757   0.75774
C          C       0.70990   0.75633   0.73956
C          C       0.29010   0.75633   0.76044
C          C       0.68468   0.73625   0.74026
C          C       0.31532   0.73625   0.75973
C          C       0.97369   0.08406   0.73838
C          C       0.02631   0.08406   0.76161
C          C       0.97524   0.04211   0.72779
C          C       0.02476   0.04211   0.77221
C          C       0.94949   0.01879   0.69077
C          C       0.05051   0.01879   0.80924
C          C       0.05228   0.10702   0.76443
C          C       0.94772   0.10702   0.73557
C          C       0.07813   0.09615   0.68250
C          C       0.92187   0.09615   0.81750
C          C       0.10259   0.11793   0.69176
C          C       0.89741   0.11793   0.80824
C          C       0.10517   0.15424   0.77986
C          C       0.89483   0.15424   0.72014
C          C       0.07951   0.16549   0.85659
C          C       0.92049   0.16549   0.64341
C          C       0.05499   0.14413   0.85028
C          C       0.94501   0.14413   0.64972
C          C       0.12991   0.18078   0.80023
C          C       0.87009   0.18078   0.69978
N          N       0.15569   0.17468   0.74247
N          N       0.84431   0.17468   0.75753
C          C       0.18198   0.19697   0.75009
C          C       0.81802   0.19697   0.74991
C          C       0.20741   0.18081   0.69101
C          C       0.79259   0.18081   0.80899
C          C       0.23282   0.20019   0.69449
C          C       0.76718   0.20019   0.80551
C          C       0.23637   0.23941   0.75664
C          C       0.76363   0.23941   0.74337
C          C       0.21057   0.25573   0.81572
C          C       0.78943   0.25573   0.68428
C          C       0.18531   0.23575   0.81310
C          C       0.81469   0.23575   0.68690
C          C       0.47378   0.58343   0.76076
C          C       0.52622   0.58343   0.73925
C          C       0.47504   0.54119   0.77382
C          C       0.52496   0.54119   0.72618
C          C       0.45148   0.51910   0.82001
C          C       0.54852   0.51910   0.67998
C          C       0.44776   0.39212   0.76385
C          C       0.55224   0.39212   0.73615
C          C       0.42178   0.40379   0.68594
C          C       0.57822   0.40379   0.81407
C          C       0.39728   0.38205   0.69376
C          C       0.60272   0.38205   0.80624
C          C       0.39478   0.34507   0.77642
C          C       0.60522   0.34507   0.72358
C          C       0.42050   0.33322   0.85026
C          C       0.57950   0.33322   0.64974
C          C       0.44504   0.35456   0.84570
C          C       0.55496   0.35456   0.65430
C          C       0.37012   0.31823   0.79273
C          C       0.62988   0.31823   0.70727
N          N       0.34387   0.32580   0.74821
N          N       0.65613   0.32580   0.75178
C          C       0.31768   0.30324   0.75389
C          C       0.68232   0.30324   0.74611
C          C       0.29136   0.32187   0.75080
C          C       0.70864   0.32187   0.74919
C          C       0.26602   0.30229   0.75433
C          C       0.73398   0.30229   0.74567
C          C       0.26342   0.26049   0.75774
C          C       0.73658   0.26049   0.74226
C          C       0.29010   0.24174   0.76009
C          C       0.70990   0.24174   0.73991
C          C       0.31532   0.26181   0.75938
C          C       0.68468   0.26181   0.74062
C          C       0.02631   0.91401   0.76161
C          C       0.97369   0.91401   0.73838
C          C       0.02476   0.95595   0.77221
C          C       0.97524   0.95595   0.72779
C          C       0.05051   0.97927   0.80924
C          C       0.94949   0.97927   0.69077
C          C       0.94772   0.89104   0.73557
C          C       0.05228   0.89104   0.76442
C          C       0.92187   0.90192   0.81750
C          C       0.07813   0.90192   0.68250
C          C       0.89741   0.88014   0.80824
C          C       0.10259   0.88014   0.69176
C          C       0.89483   0.84382   0.72015
C          C       0.10517   0.84382   0.77985
C          C       0.92049   0.83258   0.64342
C          C       0.07951   0.83258   0.85658
C          C       0.94501   0.85394   0.64973
C          C       0.05499   0.85394   0.85027
C          C       0.87009   0.81728   0.69979
C          C       0.12991   0.81728   0.80021
N          N       0.84431   0.82339   0.75752
N          N       0.15569   0.82339   0.74249
C          C       0.81802   0.80110   0.74989
C          C       0.18198   0.80110   0.75011
C          C       0.79258   0.81726   0.80884
C          C       0.20742   0.81726   0.69116
C          C       0.76717   0.79789   0.80535
C          C       0.23283   0.79789   0.69465
C          C       0.76363   0.75865   0.74336
C          C       0.23637   0.75865   0.75664
C          C       0.78943   0.74232   0.68442
C          C       0.21057   0.74232   0.81557
C          C       0.81469   0.76230   0.68704
C          C       0.18531   0.76230   0.81296
C          C       0.52622   0.41464   0.73925
C          C       0.47378   0.41464   0.76075
C          C       0.52496   0.45688   0.72617
C          C       0.47504   0.45688   0.77383
C          C       0.54852   0.47897   0.67998
C          C       0.45148   0.47897   0.82001
H          H       0.57883   0.56649   0.88650
H          H       0.42117   0.56649   0.61350
H          H       0.62103   0.60368   0.87197
H          H       0.37897   0.60368   0.62803
H          H       0.57858   0.69296   0.57991
H          H       0.42142   0.69296   0.92009
H          H       0.53677   0.65584   0.58720
H          H       0.46323   0.65584   0.91280
H          H       0.62447   0.70823   0.64880
H          H       0.37553   0.70823   0.85120
H          H       0.70921   0.64398   0.75490
H          H       0.29079   0.64398   0.74510
H          H       0.75301   0.67791   0.75011
H          H       0.24699   0.67791   0.74989
H          H       0.70914   0.78857   0.73542
H          H       0.29086   0.78857   0.76458
H          H       0.66554   0.75384   0.73804
H          H       0.33446   0.75384   0.76196
H          H       0.93133   0.03567   0.65398
H          H       0.06867   0.03567   0.84602
H          H       0.07870   0.06890   0.60615
H          H       0.92130   0.06890   0.89385
H          H       0.12082   0.10610   0.62343
H          H       0.87918   0.10610   0.87657
H          H       0.07865   0.19306   0.93049
H          H       0.92135   0.19306   0.56951
H          H       0.03687   0.15589   0.92017
H          H       0.96313   0.15589   0.57983
H          H       0.12498   0.20759   0.87319
H          H       0.87502   0.20759   0.62682
H          H       0.20718   0.15086   0.63807
H          H       0.79282   0.15086   0.86192
H          H       0.25104   0.18456   0.64276
H          H       0.74896   0.18456   0.85724
H          H       0.21064   0.28568   0.86894
H          H       0.78936   0.28568   0.63106
H          H       0.16697   0.25126   0.86323
H          H       0.83303   0.25126   0.63677
H          H       0.43205   0.53388   0.85559
H          H       0.56795   0.53388   0.64441
H          H       0.37897   0.39439   0.62804
H          H       0.62103   0.39439   0.87197
H          H       0.42142   0.30510   0.92004
H          H       0.57858   0.30510   0.57996
H          H       0.46324   0.34222   0.91276
H          H       0.53676   0.34222   0.58723
H          H       0.37553   0.28982   0.85107
H          H       0.62447   0.28982   0.64894
H          H       0.29079   0.35409   0.74579
H          H       0.70921   0.35409   0.75421
H          H       0.24699   0.32016   0.75057
H          H       0.75301   0.32016   0.74943
H          H       0.29087   0.20949   0.76391
H          H       0.70913   0.20949   0.73609
H          H       0.33447   0.24422   0.76130
H          H       0.66553   0.24422   0.73870
H          H       0.87918   0.89196   0.87657
H          H       0.12082   0.89196   0.62343
H          H       0.92135   0.80500   0.56953
H          H       0.07865   0.80500   0.93047
H          H       0.96313   0.84217   0.57984
H          H       0.03687   0.84217   0.92016
H          H       0.87502   0.79047   0.62687
H          H       0.12498   0.79047   0.87313
H          H       0.79281   0.84723   0.86165
H          H       0.20719   0.84723   0.63835
H          H       0.74895   0.81353   0.85696
H          H       0.25105   0.81353   0.64304
H          H       0.78936   0.71236   0.63133
H          H       0.21064   0.71236   0.86867
H          H       0.83304   0.74678   0.63703
H          H       0.16696   0.74678   0.86297
H          H       0.57883   0.43157   0.88648
H          H       0.42117   0.43157   0.61351
H          H       0.93133   0.96239   0.65398
H          H       0.06867   0.96239   0.84602
H          H       0.92130   0.92917   0.89385
H          H       0.07870   0.92917   0.60615
H          H       0.56795   0.46419   0.64441
H          H       0.43205   0.46419   0.85559
C          C       0.00000   0.02040   0.75000
C          C       0.00000   0.97766   0.75000
C          C       0.00000   0.10297   0.75000
C          C       0.00000   0.89509   0.75000
H          H       0.00000   0.13525   0.75000
H          H       0.00000   0.86281   0.75000
C          C       0.50000   0.51987   0.75000
C          C       0.50000   0.47820   0.75000
C          C       0.50000   0.60223   0.75000
C          C       0.50000   0.39584   0.75000
H          H       0.50000   0.63450   0.75000
H          H       0.50000   0.36357   0.75000
