data_crystal

_cell_length_a    20.40370
_cell_length_b    20.19380
_cell_length_c    9.94160
_cell_angle_alpha 90.00000
_cell_angle_beta  90.00000
_cell_angle_gamma 120.00000

_space_group_name_Hall 'P 1'
_space_group_name_H-M_alt 'P 1'

loop_
_symmetry_equiv_pos_as_xyz
 'x,y,z'

loop_
_atom_site_label
_atom_site_type_symbol
_atom_site_fract_x
_atom_site_fract_y
_atom_site_fract_z
C          C       0.79802   0.76867   0.36118
N          N       0.85254   0.78658   0.26846
C          C       0.91837   0.84984   0.24022
C          C       0.96486   0.83967   0.14757
C          C       0.03930   0.89881   0.12117
C          C       0.06614   0.96891   0.19133
C          C       0.01735   0.98122   0.27492
C          C       0.94365   0.92163   0.30054
N          N       0.13853   0.02587   0.19143
C          C       0.19871   0.01935   0.22845
C          C       0.43521   0.36680   0.35143
C          C       0.45005   0.30499   0.34436
C          C       0.52418   0.31981   0.36891
C          C       0.58564   0.39518   0.38232
C          C       0.57004   0.45659   0.39232
C          C       0.49449   0.44030   0.38549
C          C       0.39511   0.23037   0.30454
C          C       0.36563   0.36115   0.31520
C          C       0.62560   0.53495   0.38970
C          C       0.65963   0.40593   0.37157
C          C       0.36502   0.40796   0.20971
C          C       0.29744   0.40386   0.16870
C          C       0.22839   0.35219   0.23151
C          C       0.22824   0.30357   0.33386
C          C       0.29625   0.30856   0.37604
C          C       0.35233   0.22019   0.18700
C          C       0.28818   0.14972   0.15856
C          C       0.26851   0.08631   0.24278
C          C       0.31770   0.09305   0.34842
C          C       0.38024   0.16485   0.37977
C          C       0.67893   0.56096   0.28471
C          C       0.73551   0.63739   0.27550
C          C       0.73933   0.69212   0.36887
C          C       0.68375   0.66723   0.47101
C          C       0.62781   0.58947   0.48184
C          C       0.67666   0.36978   0.26611
C          C       0.75069   0.38484   0.24454
C          C       0.81085   0.43803   0.32600
C          C       0.79407   0.47252   0.43396
C          C       0.71945   0.45587   0.45683
C          C       0.88591   0.45659   0.30205
N          N       0.90304   0.42453   0.19873
C          C       0.97046   0.43198   0.16609
C          C       0.96845   0.37066   0.09545
C          C       0.03471   0.36668   0.08123
C          C       0.10344   0.42465   0.13623
C          C       0.10835   0.49214   0.18978
C          C       0.04079   0.49446   0.20537
N          N       0.16351   0.41452   0.14979
C          C       0.16105   0.35100   0.19911
C          C       0.18007   0.55907   0.23735
C          C       0.08534   0.88376   0.02335
H          H       0.80083   0.80885   0.42723
H          H       0.94479   0.78789   0.10045
H          H       0.03587   0.03283   0.32152
H          H       0.90973   0.93058   0.36472
H          H       0.19236   0.96766   0.25668
H          H       0.53449   0.27502   0.36893
H          H       0.48272   0.48389   0.39644
H          H       0.41396   0.44552   0.16103
H          H       0.29942   0.43907   0.09279
H          H       0.17892   0.26501   0.38035
H          H       0.29438   0.27332   0.45105
H          H       0.36647   0.26489   0.12315
H          H       0.25557   0.14555   0.07722
H          H       0.30673   0.04687   0.40689
H          H       0.41320   0.16914   0.46056
H          H       0.67689   0.52421   0.21289
H          H       0.77357   0.65189   0.19853
H          H       0.68397   0.70529   0.03927
H          H       0.58874   0.57290   0.05754
H          H       0.63554   0.33307   0.20116
H          H       0.75989   0.35708   0.16712
H          H       0.83592   0.51032   0.49669
H          H       0.70951   0.48185   0.03513
H          H       0.92763   0.49320   0.36618
H          H       0.91848   0.32705   0.05899
H          H       0.03209   0.32021   0.03473
H          H       0.04277   0.54146   0.24834
H          H       0.11016   0.30412   0.22378
H          H       0.18899   0.61062   0.18561
H          H       0.22958   0.55319   0.21866
H          H       0.17663   0.56660   0.34539
H          H       0.05422   0.86212   0.42934
H          H       0.09749   0.84090   0.06433
H          H       0.13876   0.93492   0.49945
C          C       0.79802   0.76867   0.86118
N          N       0.85254   0.78658   0.76846
C          C       0.91837   0.84984   0.74022
C          C       0.96486   0.83967   0.64756
C          C       0.03930   0.89881   0.62117
C          C       0.06614   0.96891   0.69133
C          C       0.01735   0.98122   0.77492
C          C       0.94365   0.92163   0.80054
N          N       0.13853   0.02587   0.69143
C          C       0.19871   0.01935   0.72845
C          C       0.43521   0.36680   0.85143
C          C       0.45005   0.30499   0.84436
C          C       0.52418   0.31981   0.86891
C          C       0.58564   0.39518   0.88232
C          C       0.57004   0.45659   0.89232
C          C       0.49449   0.44030   0.88550
C          C       0.39511   0.23037   0.80454
C          C       0.36563   0.36115   0.81520
C          C       0.62560   0.53495   0.88970
C          C       0.65963   0.40593   0.87157
C          C       0.36502   0.40796   0.70971
C          C       0.29744   0.40386   0.66870
C          C       0.22839   0.35219   0.73151
C          C       0.22824   0.30357   0.83386
C          C       0.29625   0.30856   0.87604
C          C       0.35233   0.22019   0.68700
C          C       0.28818   0.14972   0.65856
C          C       0.26851   0.08631   0.74278
C          C       0.31770   0.09305   0.84842
C          C       0.38024   0.16485   0.87977
C          C       0.67893   0.56096   0.78471
C          C       0.73551   0.63739   0.77550
C          C       0.73933   0.69212   0.86887
C          C       0.68375   0.66723   0.97101
C          C       0.62781   0.58947   0.98184
C          C       0.67666   0.36978   0.76611
C          C       0.75069   0.38484   0.74455
C          C       0.81085   0.43803   0.82600
C          C       0.79407   0.47252   0.93396
C          C       0.71945   0.45587   0.95683
C          C       0.88591   0.45659   0.80205
N          N       0.90304   0.42453   0.69873
C          C       0.97046   0.43198   0.66609
C          C       0.96845   0.37066   0.59545
C          C       0.03471   0.36668   0.58123
C          C       0.10344   0.42465   0.63623
C          C       0.10835   0.49214   0.68978
C          C       0.04079   0.49446   0.70537
N          N       0.16351   0.41452   0.64978
C          C       0.16105   0.35100   0.69911
C          C       0.18007   0.55907   0.73735
C          C       0.08534   0.88376   0.52335
H          H       0.80083   0.80885   0.92722
H          H       0.94479   0.78789   0.60045
H          H       0.03587   0.03283   0.82152
H          H       0.90973   0.93058   0.86472
H          H       0.19236   0.96766   0.75668
H          H       0.53449   0.27502   0.86893
H          H       0.48272   0.48389   0.89644
H          H       0.41396   0.44552   0.66103
H          H       0.29942   0.43907   0.59279
H          H       0.17892   0.26501   0.88035
H          H       0.29438   0.27332   0.95105
H          H       0.36647   0.26489   0.62314
H          H       0.25557   0.14555   0.57722
H          H       0.30673   0.04687   0.90689
H          H       0.41320   0.16914   0.96056
H          H       0.67689   0.52421   0.71289
H          H       0.77357   0.65189   0.69853
H          H       0.68397   0.70529   0.53928
H          H       0.58874   0.57290   0.55754
H          H       0.63554   0.33307   0.70116
H          H       0.75989   0.35708   0.66712
H          H       0.83592   0.51032   0.99669
H          H       0.70951   0.48185   0.53512
H          H       0.92763   0.49320   0.86618
H          H       0.91848   0.32705   0.55899
H          H       0.03209   0.32021   0.53473
H          H       0.04277   0.54146   0.74834
H          H       0.11016   0.30412   0.72378
H          H       0.18899   0.61062   0.68561
H          H       0.22958   0.55319   0.71866
H          H       0.17663   0.56660   0.84539
H          H       0.05422   0.86212   0.92933
H          H       0.09749   0.84090   0.56433
H          H       0.13876   0.93492   0.99945
