data_crystal

_cell_length_a    18.11060
_cell_length_b    18.11060
_cell_length_c    6.89120
_cell_angle_alpha 90.00000
_cell_angle_beta  90.00000
_cell_angle_gamma 120.00000

_space_group_name_Hall 'P 1'
_space_group_name_H-M_alt 'P 1'

loop_
_symmetry_equiv_pos_as_xyz
 'x,y,z'

loop_
_atom_site_label
_atom_site_type_symbol
_atom_site_fract_x
_atom_site_fract_y
_atom_site_fract_z
C          C       0.97282   0.05878   0.25000
C          C       0.94122   0.91404   0.25000
C          C       0.08596   0.02718   0.25000
C          C       0.91230   0.97244   0.25000
C          C       0.02756   0.93986   0.25000
C          C       0.06014   0.08770   0.25000
C          C       0.82334   0.94685   0.25000
C          C       0.05315   0.87649   0.25000
C          C       0.12351   0.17666   0.25000
C          C       0.41580   0.70472   0.25000
C          C       0.29528   0.71108   0.25000
C          C       0.28892   0.58420   0.25000
N          N       0.38035   0.75406   0.25000
N          N       0.24594   0.62629   0.25000
N          N       0.37371   0.61965   0.25000
C          C       0.50347   0.74528   0.25000
C          C       0.25472   0.75819   0.25000
C          C       0.24181   0.49653   0.25000
C          C       0.54567   0.69682   0.25000
C          C       0.30318   0.84885   0.25000
C          C       0.15115   0.45433   0.25000
C          C       0.63312   0.73864   0.25000
C          C       0.26136   0.89448   0.25000
C          C       0.10552   0.36688   0.25000
C          C       0.68098   0.82798   0.25000
C          C       0.17202   0.85300   0.25000
C          C       0.14700   0.31902   0.25000
C          C       0.63908   0.87569   0.25000
C          C       0.12431   0.76339   0.25000
C          C       0.23661   0.36092   0.25000
C          C       0.55177   0.83587   0.25000
C          C       0.16413   0.71590   0.25000
C          C       0.28410   0.44823   0.25000
N          N       0.76918   0.86632   0.25000
N          N       0.13368   0.90286   0.25000
N          N       0.09714   0.23082   0.25000
H          H       0.95068   0.10512   0.25000
H          H       0.89488   0.84556   0.25000
H          H       0.15444   0.04932   0.25000
H          H       0.80613   0.99709   0.25000
H          H       0.00291   0.80904   0.25000
H          H       0.19096   0.19387   0.25000
H          H       0.50933   0.62675   0.25000
H          H       0.37325   0.88258   0.25000
H          H       0.11742   0.49067   0.25000
H          H       0.66585   0.70136   0.25000
H          H       0.29864   0.96449   0.25000
H          H       0.03551   0.33415   0.25000
H          H       0.67500   0.94561   0.25000
H          H       0.05439   0.72939   0.25000
H          H       0.27061   0.32500   0.25000
H          H       0.52026   0.87434   0.25000
H          H       0.12566   0.64592   0.25000
H          H       0.35408   0.47974   0.25000
C          C       0.97282   0.05878   0.75000
C          C       0.94122   0.91404   0.75000
C          C       0.08596   0.02718   0.75000
C          C       0.91230   0.97244   0.75000
C          C       0.02756   0.93986   0.75000
C          C       0.06014   0.08770   0.75000
C          C       0.82334   0.94685   0.75000
C          C       0.05315   0.87649   0.75000
C          C       0.12351   0.17666   0.75000
C          C       0.41580   0.70472   0.75000
C          C       0.29528   0.71108   0.75000
C          C       0.28892   0.58420   0.75000
N          N       0.38035   0.75406   0.75000
N          N       0.24594   0.62629   0.75000
N          N       0.37371   0.61965   0.75000
C          C       0.50347   0.74528   0.75000
C          C       0.25472   0.75819   0.75000
C          C       0.24181   0.49653   0.75000
C          C       0.54567   0.69682   0.75000
C          C       0.30318   0.84885   0.75000
C          C       0.15115   0.45433   0.75000
C          C       0.63312   0.73864   0.75000
C          C       0.26136   0.89448   0.75000
C          C       0.10552   0.36688   0.75000
C          C       0.68098   0.82798   0.75000
C          C       0.17202   0.85300   0.75000
C          C       0.14700   0.31902   0.75000
C          C       0.63908   0.87569   0.75000
C          C       0.12431   0.76339   0.75000
C          C       0.23661   0.36092   0.75000
C          C       0.55177   0.83587   0.75000
C          C       0.16413   0.71590   0.75000
C          C       0.28410   0.44823   0.75000
N          N       0.76918   0.86632   0.75000
N          N       0.13368   0.90286   0.75000
N          N       0.09714   0.23082   0.75000
H          H       0.95068   0.10512   0.75000
H          H       0.89488   0.84556   0.75000
H          H       0.15444   0.04932   0.75000
H          H       0.80613   0.99709   0.75000
H          H       0.00291   0.80904   0.75000
H          H       0.19096   0.19387   0.75000
H          H       0.50933   0.62675   0.75000
H          H       0.37325   0.88258   0.75000
H          H       0.11742   0.49067   0.75000
H          H       0.66585   0.70136   0.75000
H          H       0.29864   0.96449   0.75000
H          H       0.03551   0.33415   0.75000
H          H       0.67500   0.94561   0.75000
H          H       0.05439   0.72939   0.75000
H          H       0.27061   0.32500   0.75000
H          H       0.52026   0.87434   0.75000
H          H       0.12566   0.64592   0.75000
H          H       0.35408   0.47974   0.75000
