data_crystal

_cell_length_a    36.34040
_cell_length_b    31.29950
_cell_length_c    9.88800
_cell_angle_alpha 90.00000
_cell_angle_beta  90.00000
_cell_angle_gamma 90.00000

_space_group_name_Hall 'P 1'
_space_group_name_H-M_alt 'P 1'

loop_
_symmetry_equiv_pos_as_xyz
 'x,y,z'

loop_
_atom_site_label
_atom_site_type_symbol
_atom_site_fract_x
_atom_site_fract_y
_atom_site_fract_z
C          C       0.43303   0.47580   0.24353
C          C       0.56697   0.47580   0.25648
C          C       0.46610   0.45208   0.24441
C          C       0.53390   0.45208   0.25559
C          C       0.46607   0.40654   0.24078
C          C       0.53393   0.40654   0.25922
C          C       0.93495   0.97575   0.31016
C          C       0.06505   0.97575   0.18984
C          C       0.96680   0.95241   0.27472
C          C       0.03320   0.95241   0.22528
C          C       0.96639   0.90708   0.26420
C          C       0.03361   0.90708   0.23580
C          C       0.56694   0.52036   0.26063
C          C       0.43306   0.52036   0.23937
C          C       0.53391   0.54403   0.25366
C          C       0.46609   0.54403   0.24634
C          C       0.53398   0.58956   0.25089
C          C       0.46602   0.58956   0.24911
C          C       0.06491   0.02041   0.18743
C          C       0.93509   0.02041   0.31257
C          C       0.03308   0.04394   0.22220
C          C       0.96692   0.04394   0.27780
C          C       0.03337   0.08936   0.22869
C          C       0.96663   0.08936   0.27131
C          C       0.56607   0.38111   0.27097
C          C       0.43393   0.38111   0.22904
C          C       0.59187   0.38760   0.37626
C          C       0.40813   0.38760   0.12374
C          C       0.62483   0.36401   0.38140
C          C       0.37517   0.36401   0.11859
C          C       0.63206   0.33218   0.28417
C          C       0.36794   0.33218   0.21583
C          C       0.60567   0.32400   0.18337
C          C       0.39433   0.32400   0.31663
C          C       0.57317   0.34817   0.17650
C          C       0.42683   0.34817   0.32349
N          N       0.66366   0.30979   0.27453
N          N       0.33634   0.30979   0.22547
C          C       0.68744   0.29668   0.37037
C          C       0.31256   0.29668   0.12963
C          C       0.71908   0.27331   0.33394
C          C       0.28092   0.27331   0.16606
C          C       0.75260   0.27903   0.40454
C          C       0.24740   0.27903   0.09546
C          C       0.78429   0.25595   0.36832
C          C       0.21571   0.25595   0.13168
O          O       0.82098   0.19697   0.09927
O          O       0.17902   0.19697   0.40074
C          C       0.06639   0.88285   0.23830
C          C       0.93361   0.88285   0.26170
C          C       0.09299   0.89134   0.33915
C          C       0.90701   0.89134   0.16085
C          C       0.12565   0.86746   0.34559
C          C       0.87435   0.86746   0.15441
C          C       0.13238   0.83460   0.25181
C          C       0.86762   0.83460   0.24819
C          C       0.10586   0.82561   0.15165
C          C       0.89414   0.82561   0.34835
C          C       0.07310   0.84957   0.14482
C          C       0.92690   0.84957   0.35518
N          N       0.16391   0.81251   0.26789
N          N       0.83609   0.81251   0.23211
C          C       0.18695   0.79700   0.17324
C          C       0.81305   0.79700   0.32676
C          C       0.21821   0.77335   0.21182
C          C       0.78179   0.77335   0.28819
C          C       0.25203   0.77866   0.14295
C          C       0.74797   0.77866   0.35705
C          C       0.28340   0.75540   0.18139
C          C       0.71660   0.75540   0.31861
O          O       0.31887   0.69542   0.45143
O          O       0.68113   0.69542   0.04857
C          C       0.43376   0.61497   0.25118
C          C       0.56624   0.61497   0.24882
C          C       0.40644   0.60928   0.35152
C          C       0.59356   0.60928   0.14848
C          C       0.37371   0.63328   0.34892
C          C       0.62629   0.63328   0.15108
C          C       0.36813   0.66466   0.24869
C          C       0.63187   0.66466   0.25131
C          C       0.39578   0.67158   0.15156
C          C       0.60422   0.67158   0.34844
C          C       0.42817   0.64704   0.15248
C          C       0.57183   0.64704   0.34752
N          N       0.33704   0.68779   0.23435
N          N       0.66296   0.68779   0.26565
C          C       0.31325   0.70219   0.32842
C          C       0.68675   0.70219   0.17158
C          C       0.28195   0.72576   0.28943
C          C       0.71805   0.72576   0.21056
C          C       0.24811   0.72044   0.35824
C          C       0.75189   0.72044   0.14176
C          C       0.21675   0.74377   0.31999
C          C       0.78325   0.74377   0.18001
O          O       0.18156   0.80506   0.05084
O          O       0.81844   0.80506   0.44916
C          C       0.93427   0.11414   0.28186
C          C       0.06573   0.11414   0.21814
C          C       0.90512   0.10786   0.18930
C          C       0.09488   0.10786   0.31070
C          C       0.87270   0.13214   0.19893
C          C       0.12730   0.13214   0.30107
C          C       0.86906   0.16389   0.29930
C          C       0.13094   0.16389   0.20070
C          C       0.89809   0.17032   0.39142
C          C       0.10191   0.17032   0.10859
C          C       0.93045   0.14578   0.38288
C          C       0.06955   0.14578   0.11712
N          N       0.83848   0.18779   0.31639
N          N       0.16152   0.18779   0.18361
C          C       0.81496   0.20295   0.22249
C          C       0.18504   0.20295   0.27751
C          C       0.78345   0.22622   0.26053
C          C       0.21655   0.22622   0.23947
C          C       0.74991   0.22040   0.19020
C          C       0.25009   0.22040   0.30980
C          C       0.71825   0.24344   0.22642
C          C       0.28175   0.24344   0.27358
O          O       0.68150   0.30441   0.49251
O          O       0.31850   0.30441   0.00749
H          H       0.40795   0.46114   0.24605
H          H       0.59205   0.46114   0.25395
H          H       0.91105   0.96049   0.33572
H          H       0.08895   0.96049   0.16428
H          H       0.59190   0.53506   0.26899
H          H       0.40810   0.53506   0.23101
H          H       0.08869   0.03545   0.15934
H          H       0.91131   0.03545   0.34066
H          H       0.58699   0.41010   0.44939
H          H       0.41301   0.41010   0.05061
H          H       0.64364   0.37069   0.45517
H          H       0.35636   0.37069   0.04483
H          H       0.61011   0.30067   0.11264
H          H       0.38989   0.30067   0.38736
H          H       0.55488   0.34187   0.10021
H          H       0.44512   0.34187   0.39980
H          H       0.67045   0.30256   0.18361
H          H       0.32955   0.30256   0.31639
H          H       0.75423   0.30033   0.48313
H          H       0.24577   0.30033   0.01687
H          H       0.80810   0.26144   0.42100
H          H       0.19190   0.26144   0.07900
H          H       0.08863   0.91486   0.40945
H          H       0.91137   0.91486   0.09055
H          H       0.14448   0.87421   0.41961
H          H       0.85552   0.87421   0.08039
H          H       0.11013   0.80141   0.08408
H          H       0.88987   0.80141   0.41592
H          H       0.05421   0.84264   0.07114
H          H       0.94579   0.84264   0.42886
H          H       0.17171   0.80872   0.35985
H          H       0.82829   0.80872   0.14015
H          H       0.25412   0.79981   0.06409
H          H       0.74588   0.79981   0.43590
H          H       0.30744   0.76067   0.12989
H          H       0.69256   0.76067   0.37011
H          H       0.41008   0.58718   0.42679
H          H       0.58992   0.58718   0.07321
H          H       0.35389   0.62728   0.41964
H          H       0.64611   0.62728   0.08036
H          H       0.39241   0.69438   0.07832
H          H       0.60759   0.69438   0.42168
H          H       0.44753   0.65247   0.07916
H          H       0.55247   0.65247   0.42084
H          H       0.33078   0.69470   0.14256
H          H       0.66922   0.69470   0.35744
H          H       0.24602   0.69928   0.43708
H          H       0.75398   0.69928   0.06292
H          H       0.19271   0.73866   0.37171
H          H       0.80729   0.73866   0.12829
H          H       0.90730   0.08545   0.11417
H          H       0.09270   0.08545   0.38583
H          H       0.85173   0.12621   0.13280
H          H       0.14827   0.12621   0.36720
H          H       0.89583   0.19293   0.46575
H          H       0.10417   0.19293   0.03425
H          H       0.95112   0.15095   0.45142
H          H       0.04888   0.15095   0.04858
H          H       0.83255   0.19465   0.40848
H          H       0.16745   0.19465   0.09152
H          H       0.74826   0.19909   0.11162
H          H       0.25174   0.19909   0.38838
H          H       0.69449   0.23785   0.17358
H          H       0.30551   0.23785   0.32642
C          C       0.50000   0.47511   0.25000
C          C       0.50000   0.38494   0.25000
C          C       0.50000   0.52099   0.25000
C          C       0.50000   0.61123   0.25000
H          H       0.50000   0.35215   0.25000
H          H       0.50000   0.64404   0.25000
C          C       0.00000   0.97535   0.25000
C          C       0.00000   0.88510   0.25000
C          C       0.00000   0.02106   0.25000
C          C       0.00000   0.11126   0.25000
H          H       0.00000   0.85231   0.25000
H          H       0.00000   0.14406   0.25000
C          C       0.43303   0.47580   0.74352
C          C       0.56697   0.47580   0.75648
C          C       0.46610   0.45208   0.74441
C          C       0.53390   0.45208   0.75559
C          C       0.46607   0.40654   0.74078
C          C       0.53393   0.40654   0.75922
C          C       0.93495   0.97575   0.81016
C          C       0.06505   0.97575   0.68984
C          C       0.96680   0.95241   0.77472
C          C       0.03320   0.95241   0.72528
C          C       0.96639   0.90708   0.76420
C          C       0.03361   0.90708   0.73581
C          C       0.56694   0.52036   0.76063
C          C       0.43306   0.52036   0.73937
C          C       0.53391   0.54403   0.75365
C          C       0.46609   0.54403   0.74634
C          C       0.53398   0.58956   0.75089
C          C       0.46602   0.58956   0.74911
C          C       0.06491   0.02041   0.68743
C          C       0.93509   0.02041   0.81257
C          C       0.03308   0.04394   0.72220
C          C       0.96692   0.04394   0.77780
C          C       0.03337   0.08936   0.72869
C          C       0.96663   0.08936   0.77131
C          C       0.56607   0.38111   0.77096
C          C       0.43393   0.38111   0.72903
C          C       0.59187   0.38760   0.87626
C          C       0.40813   0.38760   0.62374
C          C       0.62483   0.36401   0.88140
C          C       0.37517   0.36401   0.61860
C          C       0.63206   0.33218   0.78417
C          C       0.36794   0.33218   0.71583
C          C       0.60567   0.32400   0.68337
C          C       0.39433   0.32400   0.81663
C          C       0.57317   0.34817   0.67651
C          C       0.42683   0.34817   0.82349
N          N       0.66366   0.30979   0.77453
N          N       0.33634   0.30979   0.72547
C          C       0.68744   0.29668   0.87037
C          C       0.31256   0.29668   0.62963
C          C       0.71908   0.27331   0.83395
C          C       0.28092   0.27331   0.66605
C          C       0.75260   0.27903   0.90454
C          C       0.24740   0.27903   0.59546
C          C       0.78429   0.25595   0.86832
C          C       0.21571   0.25595   0.63168
O          O       0.82098   0.19697   0.59927
O          O       0.17902   0.19697   0.90074
C          C       0.06639   0.88285   0.73830
C          C       0.93361   0.88285   0.76170
C          C       0.09299   0.89134   0.83915
C          C       0.90701   0.89134   0.66085
C          C       0.12565   0.86746   0.84559
C          C       0.87435   0.86746   0.65441
C          C       0.13238   0.83460   0.75181
C          C       0.86762   0.83460   0.74820
C          C       0.10586   0.82561   0.65165
C          C       0.89414   0.82561   0.84836
C          C       0.07310   0.84957   0.64482
C          C       0.92690   0.84957   0.85518
N          N       0.16391   0.81251   0.76789
N          N       0.83609   0.81251   0.73211
C          C       0.18695   0.79700   0.67324
C          C       0.81305   0.79700   0.82676
C          C       0.21821   0.77335   0.71182
C          C       0.78179   0.77335   0.78819
C          C       0.25203   0.77866   0.64295
C          C       0.74797   0.77866   0.85705
C          C       0.28340   0.75540   0.68139
C          C       0.71660   0.75540   0.81861
O          O       0.31887   0.69542   0.95143
O          O       0.68113   0.69542   0.54857
C          C       0.43376   0.61497   0.75118
C          C       0.56624   0.61497   0.74881
C          C       0.40644   0.60928   0.85152
C          C       0.59356   0.60928   0.64848
C          C       0.37371   0.63328   0.84892
C          C       0.62629   0.63328   0.65108
C          C       0.36813   0.66466   0.74870
C          C       0.63187   0.66466   0.75131
C          C       0.39578   0.67158   0.65156
C          C       0.60422   0.67158   0.84844
C          C       0.42817   0.64704   0.65248
C          C       0.57183   0.64704   0.84752
N          N       0.33704   0.68779   0.73435
N          N       0.66296   0.68779   0.76565
C          C       0.31325   0.70219   0.82842
C          C       0.68675   0.70219   0.67158
C          C       0.28195   0.72576   0.78943
C          C       0.71805   0.72576   0.71056
C          C       0.24811   0.72044   0.85824
C          C       0.75189   0.72044   0.64177
C          C       0.21675   0.74377   0.81999
C          C       0.78325   0.74377   0.68002
O          O       0.18156   0.80506   0.55084
O          O       0.81844   0.80506   0.94916
C          C       0.93427   0.11414   0.78186
C          C       0.06573   0.11414   0.71814
C          C       0.90512   0.10786   0.68930
C          C       0.09488   0.10786   0.81070
C          C       0.87270   0.13214   0.69893
C          C       0.12730   0.13214   0.80107
C          C       0.86906   0.16389   0.79930
C          C       0.13094   0.16389   0.70070
C          C       0.89809   0.17032   0.89142
C          C       0.10191   0.17032   0.60859
C          C       0.93045   0.14578   0.88287
C          C       0.06955   0.14578   0.61712
N          N       0.83848   0.18779   0.81639
N          N       0.16152   0.18779   0.68361
C          C       0.81496   0.20295   0.72249
C          C       0.18504   0.20295   0.77751
C          C       0.78345   0.22622   0.76053
C          C       0.21655   0.22622   0.73947
C          C       0.74991   0.22040   0.69020
C          C       0.25009   0.22040   0.80980
C          C       0.71825   0.24344   0.72642
C          C       0.28175   0.24344   0.77358
O          O       0.68150   0.30441   0.99251
O          O       0.31850   0.30441   0.50749
H          H       0.40795   0.46114   0.74605
H          H       0.59205   0.46114   0.75395
H          H       0.91105   0.96049   0.83573
H          H       0.08895   0.96049   0.66428
H          H       0.59190   0.53506   0.76899
H          H       0.40810   0.53506   0.73101
H          H       0.08869   0.03545   0.65934
H          H       0.91131   0.03545   0.84065
H          H       0.58699   0.41010   0.94939
H          H       0.41301   0.41010   0.55061
H          H       0.64364   0.37069   0.95517
H          H       0.35636   0.37069   0.54483
H          H       0.61011   0.30067   0.61264
H          H       0.38989   0.30067   0.88736
H          H       0.55488   0.34187   0.60020
H          H       0.44512   0.34187   0.89980
H          H       0.67045   0.30256   0.68361
H          H       0.32955   0.30256   0.81639
H          H       0.75423   0.30033   0.98313
H          H       0.24577   0.30033   0.51687
H          H       0.80810   0.26144   0.92100
H          H       0.19190   0.26144   0.57900
H          H       0.08863   0.91486   0.90945
H          H       0.91137   0.91486   0.59055
H          H       0.14448   0.87421   0.91961
H          H       0.85552   0.87421   0.58039
H          H       0.11013   0.80141   0.58408
H          H       0.88987   0.80141   0.91592
H          H       0.05421   0.84264   0.57114
H          H       0.94579   0.84264   0.92886
H          H       0.17171   0.80872   0.85985
H          H       0.82829   0.80872   0.64015
H          H       0.25412   0.79981   0.56410
H          H       0.74588   0.79981   0.93591
H          H       0.30744   0.76067   0.62989
H          H       0.69256   0.76067   0.87011
H          H       0.41008   0.58718   0.92679
H          H       0.58992   0.58718   0.57321
H          H       0.35389   0.62728   0.91963
H          H       0.64611   0.62728   0.58037
H          H       0.39241   0.69438   0.57832
H          H       0.60759   0.69438   0.92168
H          H       0.44753   0.65247   0.57916
H          H       0.55247   0.65247   0.92084
H          H       0.33078   0.69470   0.64257
H          H       0.66922   0.69470   0.85743
H          H       0.24602   0.69928   0.93708
H          H       0.75398   0.69928   0.56292
H          H       0.19271   0.73866   0.87171
H          H       0.80729   0.73866   0.62829
H          H       0.90730   0.08545   0.61417
H          H       0.09270   0.08545   0.88583
H          H       0.85173   0.12621   0.63280
H          H       0.14827   0.12621   0.86720
H          H       0.89583   0.19293   0.96575
H          H       0.10417   0.19293   0.53425
H          H       0.95112   0.15095   0.95142
H          H       0.04888   0.15095   0.54858
H          H       0.83255   0.19465   0.90848
H          H       0.16745   0.19465   0.59152
H          H       0.74826   0.19909   0.61162
H          H       0.25174   0.19909   0.88838
H          H       0.69449   0.23785   0.67358
H          H       0.30551   0.23785   0.82642
C          C       0.50000   0.47511   0.75000
C          C       0.50000   0.38494   0.75000
C          C       0.50000   0.52099   0.75000
C          C       0.50000   0.61123   0.75000
H          H       0.50000   0.35215   0.75000
H          H       0.50000   0.64404   0.75000
C          C       0.00000   0.97535   0.75000
C          C       0.00000   0.88510   0.75000
C          C       0.00000   0.02106   0.75000
C          C       0.00000   0.11126   0.75000
H          H       0.00000   0.85231   0.75000
H          H       0.00000   0.14406   0.75000
