data_crystal

_cell_length_a    38.98550
_cell_length_b    38.98550
_cell_length_c    10.11840
_cell_angle_alpha 90.00000
_cell_angle_beta  90.00000
_cell_angle_gamma 120.00000

_space_group_name_Hall 'P 1'
_space_group_name_H-M_alt 'P 1'

loop_
_symmetry_equiv_pos_as_xyz
 'x,y,z'

loop_
_atom_site_label
_atom_site_type_symbol
_atom_site_fract_x
_atom_site_fract_y
_atom_site_fract_z
C          C       0.63178   0.52492   0.26943
C          C       0.47508   0.10686   0.26943
C          C       0.89314   0.36822   0.26943
C          C       0.36822   0.47508   0.26943
C          C       0.52492   0.89314   0.26943
C          C       0.10686   0.63178   0.26943
C          C       0.62233   0.54650   0.18144
C          C       0.45350   0.07583   0.18144
C          C       0.92417   0.37767   0.18144
C          C       0.37767   0.45350   0.18144
C          C       0.54650   0.92417   0.18144
C          C       0.07583   0.62233   0.18144
C          C       0.58604   0.54487   0.18613
C          C       0.45513   0.04117   0.18613
C          C       0.95883   0.41396   0.18613
C          C       0.41396   0.45513   0.18613
C          C       0.54487   0.95883   0.18613
C          C       0.04117   0.58604   0.18613
C          C       0.55729   0.52046   0.27859
C          C       0.47954   0.03683   0.27859
C          C       0.96317   0.44271   0.27859
C          C       0.44271   0.47954   0.27859
C          C       0.52046   0.96317   0.27859
C          C       0.03683   0.55729   0.27859
C          C       0.56679   0.49898   0.36809
C          C       0.50102   0.06781   0.36809
C          C       0.93219   0.43321   0.36809
C          C       0.43321   0.50102   0.36809
C          C       0.49898   0.93219   0.36809
C          C       0.06781   0.56679   0.36809
C          C       0.60347   0.50145   0.36328
C          C       0.49855   0.10202   0.36328
C          C       0.89798   0.39653   0.36328
C          C       0.39653   0.49855   0.36328
C          C       0.50145   0.89798   0.36328
C          C       0.10202   0.60347   0.36328
C          C       0.51742   0.51784   0.27930
C          C       0.48216   0.99958   0.27930
C          C       0.00042   0.48258   0.27930
C          C       0.48258   0.48216   0.27930
C          C       0.51784   0.00042   0.27930
C          C       0.99958   0.51742   0.27930
C          C       0.51843   0.55700   0.27873
C          C       0.44300   0.96143   0.27873
C          C       0.03857   0.48157   0.27873
C          C       0.48157   0.44300   0.27873
C          C       0.55700   0.03857   0.27873
C          C       0.96143   0.51843   0.27873
C          C       0.54341   0.58702   0.36674
C          C       0.41298   0.95639   0.36674
C          C       0.04361   0.45659   0.36674
C          C       0.45659   0.41298   0.36674
C          C       0.58702   0.04361   0.36674
C          C       0.95639   0.54341   0.36674
C          C       0.54402   0.62284   0.36895
C          C       0.37716   0.92118   0.36895
C          C       0.07882   0.45598   0.36895
C          C       0.45598   0.37716   0.36895
C          C       0.62284   0.07882   0.36895
C          C       0.92118   0.54402   0.36895
C          C       0.52083   0.63068   0.28274
C          C       0.36932   0.89015   0.28274
C          C       0.10985   0.47917   0.28274
C          C       0.47917   0.36932   0.28274
C          C       0.63068   0.10985   0.28274
C          C       0.89015   0.52083   0.28274
C          C       0.49653   0.60097   0.19405
C          C       0.39903   0.89556   0.19405
C          C       0.10444   0.50347   0.19405
C          C       0.50347   0.39903   0.19405
C          C       0.60097   0.10444   0.19405
C          C       0.89556   0.49653   0.19405
C          C       0.49516   0.56478   0.19154
C          C       0.43522   0.93038   0.19154
C          C       0.06962   0.50484   0.19154
C          C       0.50484   0.43522   0.19154
C          C       0.56478   0.06962   0.19154
C          C       0.93038   0.49516   0.19154
N          N       0.47807   0.33292   0.29014
N          N       0.66708   0.14515   0.29014
N          N       0.85485   0.52193   0.29014
N          N       0.52193   0.66708   0.29014
N          N       0.33292   0.85485   0.29014
N          N       0.14515   0.47807   0.29014
C          C       0.48196   0.31148   0.18890
C          C       0.68852   0.17048   0.18890
C          C       0.82952   0.51804   0.18890
C          C       0.51804   0.68852   0.18890
C          C       0.31148   0.82952   0.18890
C          C       0.17048   0.48196   0.18890
C          C       0.47891   0.27352   0.23645
C          C       0.72648   0.20539   0.23645
C          C       0.79461   0.52109   0.23645
C          C       0.52109   0.72648   0.23645
C          C       0.27352   0.79461   0.23645
C          C       0.20539   0.47891   0.23645
C          C       0.45781   0.25365   0.35018
C          C       0.74635   0.20416   0.35018
C          C       0.79584   0.54219   0.35018
C          C       0.54219   0.74635   0.35018
C          C       0.25365   0.79584   0.35018
C          C       0.20416   0.45781   0.35018
C          C       0.45524   0.21832   0.38827
C          C       0.78168   0.23692   0.38827
C          C       0.76308   0.54476   0.38827
C          C       0.54476   0.78168   0.38827
C          C       0.21832   0.76308   0.38827
C          C       0.23692   0.45524   0.38827
C          C       0.47337   0.20139   0.31430
C          C       0.79861   0.27198   0.31430
C          C       0.72802   0.52663   0.31430
C          C       0.52663   0.79861   0.31430
C          C       0.20139   0.72802   0.31430
C          C       0.27198   0.47337   0.31430
C          C       0.49448   0.22126   0.20059
C          C       0.77874   0.27322   0.20059
C          C       0.72678   0.50552   0.20059
C          C       0.50552   0.77874   0.20059
C          C       0.22126   0.72678   0.20059
C          C       0.27322   0.49448   0.20059
C          C       0.49707   0.25660   0.16256
C          C       0.74340   0.24047   0.16256
C          C       0.75953   0.50293   0.16256
C          C       0.50293   0.74340   0.16256
C          C       0.25660   0.75953   0.16256
C          C       0.24047   0.49707   0.16256
C          C       0.47039   0.16345   0.36130
C          C       0.83655   0.30694   0.36130
C          C       0.69306   0.52961   0.36130
C          C       0.52961   0.83655   0.36130
C          C       0.16345   0.69306   0.36130
C          C       0.30694   0.47039   0.36130
O          O       0.46513   0.15166   0.47513
O          O       0.84834   0.31347   0.47513
O          O       0.68653   0.53487   0.47513
O          O       0.53487   0.84834   0.47513
O          O       0.15166   0.68653   0.47513
O          O       0.31347   0.46513   0.47513
O          O       0.48731   0.32302   0.07477
O          O       0.67698   0.16429   0.07477
O          O       0.83571   0.51269   0.07477
O          O       0.51269   0.67698   0.07477
O          O       0.32302   0.83571   0.07477
O          O       0.16429   0.48731   0.07477
N          N       0.47365   0.14188   0.25928
N          N       0.85812   0.33177   0.25928
N          N       0.66823   0.52635   0.25928
N          N       0.52635   0.85812   0.25928
N          N       0.14188   0.66823   0.25928
N          N       0.33177   0.47365   0.25928
H          H       0.64369   0.56525   0.10547
H          H       0.43475   0.07844   0.10547
H          H       0.92156   0.35631   0.10547
H          H       0.35631   0.43475   0.10547
H          H       0.56525   0.92156   0.10547
H          H       0.07844   0.64369   0.10547
H          H       0.58003   0.56234   0.11445
H          H       0.43766   0.01769   0.11445
H          H       0.98231   0.41997   0.11445
H          H       0.41997   0.43766   0.11445
H          H       0.56234   0.98231   0.11445
H          H       0.01769   0.58003   0.11445
H          H       0.54524   0.47960   0.44167
H          H       0.52040   0.06564   0.44167
H          H       0.93436   0.45476   0.44167
H          H       0.45476   0.52040   0.44167
H          H       0.47960   0.93436   0.44167
H          H       0.06564   0.54524   0.44167
H          H       0.60949   0.48378   0.43428
H          H       0.51622   0.12571   0.43428
H          H       0.87429   0.39051   0.43428
H          H       0.39051   0.51622   0.43428
H          H       0.48378   0.87429   0.43428
H          H       0.12571   0.60949   0.43428
H          H       0.56232   0.58247   0.43651
H          H       0.41753   0.97985   0.43651
H          H       0.02015   0.43768   0.43651
H          H       0.43768   0.41753   0.43651
H          H       0.58247   0.02015   0.43651
H          H       0.97985   0.56232   0.43651
H          H       0.56337   0.64518   0.44146
H          H       0.35482   0.91819   0.44146
H          H       0.08181   0.43663   0.44146
H          H       0.43663   0.35482   0.44146
H          H       0.64518   0.08181   0.44146
H          H       0.91819   0.56337   0.44146
H          H       0.47728   0.60529   0.12493
H          H       0.39471   0.87199   0.12493
H          H       0.12801   0.52272   0.12493
H          H       0.52272   0.39471   0.12493
H          H       0.60529   0.12801   0.12493
H          H       0.87199   0.47728   0.12493
H          H       0.47526   0.54235   0.12111
H          H       0.45765   0.93291   0.12111
H          H       0.06709   0.52474   0.12111
H          H       0.52474   0.45765   0.12111
H          H       0.54235   0.06709   0.12111
H          H       0.93291   0.47526   0.12111
H          H       0.47590   0.32295   0.38370
H          H       0.67705   0.15295   0.38370
H          H       0.84705   0.52410   0.38370
H          H       0.52410   0.67705   0.38370
H          H       0.32295   0.84705   0.38370
H          H       0.15295   0.47590   0.38370
H          H       0.44199   0.26463   0.41118
H          H       0.73537   0.17736   0.41118
H          H       0.82264   0.55801   0.41118
H          H       0.55801   0.73537   0.41118
H          H       0.26463   0.82264   0.41118
H          H       0.17736   0.44199   0.41118
H          H       0.43811   0.20356   0.47770
H          H       0.79644   0.23455   0.47770
H          H       0.76545   0.56189   0.47770
H          H       0.56189   0.79644   0.47770
H          H       0.20356   0.76545   0.47770
H          H       0.23455   0.43811   0.47770
H          H       0.51028   0.21022   0.13972
H          H       0.78978   0.30006   0.13972
H          H       0.69994   0.48972   0.13972
H          H       0.48972   0.78978   0.13972
H          H       0.21022   0.69994   0.13972
H          H       0.30006   0.51028   0.13972
H          H       0.51422   0.27136   0.07315
H          H       0.72864   0.24286   0.07315
H          H       0.75714   0.48578   0.07315
H          H       0.48578   0.72864   0.07315
H          H       0.27136   0.75714   0.07315
H          H       0.24286   0.51422   0.07315
H          H       0.47270   0.15023   0.16539
H          H       0.84977   0.32247   0.16539
H          H       0.67753   0.52730   0.16539
H          H       0.52730   0.84977   0.16539
H          H       0.15023   0.67753   0.16539
H          H       0.32247   0.47270   0.16539
C          C       0.63178   0.52492   0.76943
C          C       0.47508   0.10686   0.76943
C          C       0.89314   0.36822   0.76943
C          C       0.36822   0.47508   0.76943
C          C       0.52492   0.89314   0.76943
C          C       0.10686   0.63178   0.76943
C          C       0.62233   0.54650   0.68144
C          C       0.45350   0.07583   0.68144
C          C       0.92417   0.37767   0.68144
C          C       0.37767   0.45350   0.68144
C          C       0.54650   0.92417   0.68144
C          C       0.07583   0.62233   0.68144
C          C       0.58604   0.54487   0.68613
C          C       0.45513   0.04117   0.68613
C          C       0.95883   0.41396   0.68613
C          C       0.41396   0.45513   0.68613
C          C       0.54487   0.95883   0.68613
C          C       0.04117   0.58604   0.68613
C          C       0.55729   0.52046   0.77858
C          C       0.47954   0.03683   0.77858
C          C       0.96317   0.44271   0.77858
C          C       0.44271   0.47954   0.77858
C          C       0.52046   0.96317   0.77858
C          C       0.03683   0.55729   0.77858
C          C       0.56679   0.49898   0.86809
C          C       0.50102   0.06781   0.86809
C          C       0.93219   0.43321   0.86809
C          C       0.43321   0.50102   0.86809
C          C       0.49898   0.93219   0.86809
C          C       0.06781   0.56679   0.86809
C          C       0.60347   0.50145   0.86328
C          C       0.49855   0.10202   0.86328
C          C       0.89798   0.39653   0.86328
C          C       0.39653   0.49855   0.86328
C          C       0.50145   0.89798   0.86328
C          C       0.10202   0.60347   0.86328
C          C       0.51742   0.51784   0.77930
C          C       0.48216   0.99958   0.77930
C          C       0.00042   0.48258   0.77930
C          C       0.48258   0.48216   0.77930
C          C       0.51784   0.00042   0.77930
C          C       0.99958   0.51742   0.77930
C          C       0.51843   0.55700   0.77873
C          C       0.44300   0.96143   0.77873
C          C       0.03857   0.48157   0.77873
C          C       0.48157   0.44300   0.77873
C          C       0.55700   0.03857   0.77873
C          C       0.96143   0.51843   0.77873
C          C       0.54341   0.58702   0.86674
C          C       0.41298   0.95639   0.86674
C          C       0.04361   0.45659   0.86674
C          C       0.45659   0.41298   0.86674
C          C       0.58702   0.04361   0.86674
C          C       0.95639   0.54341   0.86674
C          C       0.54402   0.62284   0.86896
C          C       0.37716   0.92118   0.86896
C          C       0.07882   0.45598   0.86896
C          C       0.45598   0.37716   0.86896
C          C       0.62284   0.07882   0.86896
C          C       0.92118   0.54402   0.86896
C          C       0.52083   0.63068   0.78274
C          C       0.36932   0.89015   0.78274
C          C       0.10985   0.47917   0.78274
C          C       0.47917   0.36932   0.78274
C          C       0.63068   0.10985   0.78274
C          C       0.89015   0.52083   0.78274
C          C       0.49653   0.60097   0.69405
C          C       0.39903   0.89556   0.69405
C          C       0.10444   0.50347   0.69405
C          C       0.50347   0.39903   0.69405
C          C       0.60097   0.10444   0.69405
C          C       0.89556   0.49653   0.69405
C          C       0.49516   0.56478   0.69155
C          C       0.43522   0.93038   0.69155
C          C       0.06962   0.50484   0.69155
C          C       0.50484   0.43522   0.69155
C          C       0.56478   0.06962   0.69155
C          C       0.93038   0.49516   0.69155
N          N       0.47807   0.33292   0.79014
N          N       0.66708   0.14515   0.79014
N          N       0.85485   0.52193   0.79014
N          N       0.52193   0.66708   0.79014
N          N       0.33292   0.85485   0.79014
N          N       0.14515   0.47807   0.79014
C          C       0.48196   0.31148   0.68890
C          C       0.68852   0.17048   0.68890
C          C       0.82952   0.51804   0.68890
C          C       0.51804   0.68852   0.68890
C          C       0.31148   0.82952   0.68890
C          C       0.17048   0.48196   0.68890
C          C       0.47891   0.27352   0.73645
C          C       0.72648   0.20539   0.73645
C          C       0.79461   0.52109   0.73645
C          C       0.52109   0.72648   0.73645
C          C       0.27352   0.79461   0.73645
C          C       0.20539   0.47891   0.73645
C          C       0.45781   0.25365   0.85018
C          C       0.74635   0.20416   0.85018
C          C       0.79584   0.54219   0.85018
C          C       0.54219   0.74635   0.85018
C          C       0.25365   0.79584   0.85018
C          C       0.20416   0.45781   0.85018
C          C       0.45524   0.21832   0.88827
C          C       0.78168   0.23692   0.88827
C          C       0.76308   0.54476   0.88827
C          C       0.54476   0.78168   0.88827
C          C       0.21832   0.76308   0.88827
C          C       0.23692   0.45524   0.88827
C          C       0.47337   0.20139   0.81430
C          C       0.79861   0.27198   0.81430
C          C       0.72802   0.52663   0.81430
C          C       0.52663   0.79861   0.81430
C          C       0.20139   0.72802   0.81430
C          C       0.27198   0.47337   0.81430
C          C       0.49448   0.22126   0.70059
C          C       0.77874   0.27322   0.70059
C          C       0.72678   0.50552   0.70059
C          C       0.50552   0.77874   0.70059
C          C       0.22126   0.72678   0.70059
C          C       0.27322   0.49448   0.70059
C          C       0.49707   0.25660   0.66256
C          C       0.74340   0.24047   0.66256
C          C       0.75953   0.50293   0.66256
C          C       0.50293   0.74340   0.66256
C          C       0.25660   0.75953   0.66256
C          C       0.24047   0.49707   0.66256
C          C       0.47039   0.16345   0.86131
C          C       0.83655   0.30694   0.86131
C          C       0.69306   0.52961   0.86131
C          C       0.52961   0.83655   0.86131
C          C       0.16345   0.69306   0.86131
C          C       0.30694   0.47039   0.86131
O          O       0.46513   0.15166   0.97513
O          O       0.84834   0.31347   0.97513
O          O       0.68653   0.53487   0.97513
O          O       0.53487   0.84834   0.97513
O          O       0.15166   0.68653   0.97513
O          O       0.31347   0.46513   0.97513
O          O       0.48731   0.32302   0.57477
O          O       0.67698   0.16429   0.57477
O          O       0.83571   0.51269   0.57477
O          O       0.51269   0.67698   0.57477
O          O       0.32302   0.83571   0.57477
O          O       0.16429   0.48731   0.57477
N          N       0.47365   0.14188   0.75928
N          N       0.85812   0.33177   0.75928
N          N       0.66823   0.52635   0.75928
N          N       0.52635   0.85812   0.75928
N          N       0.14188   0.66823   0.75928
N          N       0.33177   0.47365   0.75928
H          H       0.64369   0.56525   0.60547
H          H       0.43475   0.07844   0.60547
H          H       0.92156   0.35631   0.60547
H          H       0.35631   0.43475   0.60547
H          H       0.56525   0.92156   0.60547
H          H       0.07844   0.64369   0.60547
H          H       0.58003   0.56234   0.61445
H          H       0.43766   0.01769   0.61445
H          H       0.98231   0.41997   0.61445
H          H       0.41997   0.43766   0.61445
H          H       0.56234   0.98231   0.61445
H          H       0.01769   0.58003   0.61445
H          H       0.54524   0.47960   0.94167
H          H       0.52040   0.06564   0.94167
H          H       0.93436   0.45476   0.94167
H          H       0.45476   0.52040   0.94167
H          H       0.47960   0.93436   0.94167
H          H       0.06564   0.54524   0.94167
H          H       0.60949   0.48378   0.93428
H          H       0.51622   0.12571   0.93428
H          H       0.87429   0.39051   0.93428
H          H       0.39051   0.51622   0.93428
H          H       0.48378   0.87429   0.93428
H          H       0.12571   0.60949   0.93428
H          H       0.56232   0.58247   0.93652
H          H       0.41753   0.97985   0.93652
H          H       0.02015   0.43768   0.93652
H          H       0.43768   0.41753   0.93652
H          H       0.58247   0.02015   0.93652
H          H       0.97985   0.56232   0.93652
H          H       0.56337   0.64518   0.94147
H          H       0.35482   0.91819   0.94147
H          H       0.08181   0.43663   0.94147
H          H       0.43663   0.35482   0.94147
H          H       0.64518   0.08181   0.94147
H          H       0.91819   0.56337   0.94147
H          H       0.47728   0.60529   0.62493
H          H       0.39471   0.87199   0.62493
H          H       0.12801   0.52272   0.62493
H          H       0.52272   0.39471   0.62493
H          H       0.60529   0.12801   0.62493
H          H       0.87199   0.47728   0.62493
H          H       0.47526   0.54235   0.62111
H          H       0.45765   0.93291   0.62111
H          H       0.06709   0.52474   0.62111
H          H       0.52474   0.45765   0.62111
H          H       0.54235   0.06709   0.62111
H          H       0.93291   0.47526   0.62111
H          H       0.47590   0.32295   0.88369
H          H       0.67705   0.15295   0.88369
H          H       0.84705   0.52410   0.88369
H          H       0.52410   0.67705   0.88369
H          H       0.32295   0.84705   0.88369
H          H       0.15295   0.47590   0.88369
H          H       0.44199   0.26463   0.91119
H          H       0.73537   0.17736   0.91119
H          H       0.82264   0.55801   0.91119
H          H       0.55801   0.73537   0.91119
H          H       0.26463   0.82264   0.91119
H          H       0.17736   0.44199   0.91119
H          H       0.43811   0.20356   0.97770
H          H       0.79644   0.23455   0.97770
H          H       0.76545   0.56189   0.97770
H          H       0.56189   0.79644   0.97770
H          H       0.20356   0.76545   0.97770
H          H       0.23455   0.43811   0.97770
H          H       0.51028   0.21022   0.63972
H          H       0.78978   0.30006   0.63972
H          H       0.69994   0.48972   0.63972
H          H       0.48972   0.78978   0.63972
H          H       0.21022   0.69994   0.63972
H          H       0.30006   0.51028   0.63972
H          H       0.51422   0.27136   0.57315
H          H       0.72864   0.24286   0.57315
H          H       0.75714   0.48578   0.57315
H          H       0.48578   0.72864   0.57315
H          H       0.27136   0.75714   0.57315
H          H       0.24286   0.51422   0.57315
H          H       0.47270   0.15023   0.66539
H          H       0.84977   0.32247   0.66539
H          H       0.67753   0.52730   0.66539
H          H       0.52730   0.84977   0.66539
H          H       0.15023   0.67753   0.66539
H          H       0.32247   0.47270   0.66539
