data_crystal

_cell_length_a    48.15500
_cell_length_b    34.30510
_cell_length_c    7.69460
_cell_angle_alpha 90.00000
_cell_angle_beta  90.00000
_cell_angle_gamma 90.00000

_space_group_name_Hall 'P 1'
_space_group_name_H-M_alt 'P 1'

loop_
_symmetry_equiv_pos_as_xyz
 'x,y,z'

loop_
_atom_site_label
_atom_site_type_symbol
_atom_site_fract_x
_atom_site_fract_y
_atom_site_fract_z
C          C       0.55212   0.61105   0.26922
C          C       0.44788   0.61105   0.23078
C          C       0.57613   0.59922   0.36758
C          C       0.42387   0.59922   0.13242
C          C       0.60151   0.61855   0.36436
C          C       0.39849   0.61855   0.13564
C          C       0.60642   0.65324   0.27327
C          C       0.39358   0.65324   0.22673
C          C       0.58289   0.66685   0.18469
C          C       0.41711   0.66685   0.31531
C          C       0.55735   0.64753   0.18186
C          C       0.44265   0.64753   0.31814
N          N       0.63393   0.67224   0.27828
N          N       0.36607   0.67224   0.22172
C          C       0.64476   0.70663   0.19567
C          C       0.35524   0.70663   0.30433
C          C       0.67621   0.72102   0.22504
C          C       0.32379   0.72102   0.27497
C          C       0.69826   0.70121   0.30504
C          C       0.30174   0.70121   0.19496
C          C       0.72514   0.71672   0.31406
C          C       0.27486   0.71672   0.18594
C          C       0.73294   0.75427   0.24577
C          C       0.26706   0.75427   0.25423
C          C       0.70991   0.77366   0.16678
C          C       0.29009   0.77366   0.33322
C          C       0.68353   0.75775   0.15701
C          C       0.31647   0.75775   0.34298
C          C       0.97373   0.08863   0.23839
C          C       0.02627   0.08863   0.26161
C          C       0.97531   0.04696   0.22564
C          C       0.02469   0.04696   0.27436
C          C       0.94965   0.02370   0.18646
C          C       0.05035   0.02370   0.31354
C          C       0.05246   0.11094   0.25849
C          C       0.94754   0.11094   0.24151
C          C       0.07774   0.09791   0.17621
C          C       0.92226   0.09791   0.32379
C          C       0.10267   0.11842   0.17983
C          C       0.89733   0.11842   0.32017
C          C       0.10580   0.15488   0.25837
C          C       0.89420   0.15488   0.24163
C          C       0.08134   0.16899   0.33481
C          C       0.91866   0.16899   0.16519
C          C       0.05623   0.14873   0.33650
C          C       0.94377   0.14873   0.16350
N          N       0.13212   0.17761   0.25317
N          N       0.86788   0.17761   0.24683
C          C       0.15897   0.16765   0.32064
C          C       0.84103   0.16765   0.17936
C          C       0.18530   0.19575   0.29481
C          C       0.81470   0.19575   0.20519
C          C       0.21110   0.18339   0.36184
C          C       0.78890   0.18339   0.13816
C          C       0.23542   0.20494   0.35141
C          C       0.76458   0.20494   0.14859
C          C       0.23706   0.24231   0.27130
C          C       0.76294   0.24231   0.22870
C          C       0.21060   0.25434   0.20331
C          C       0.78940   0.25434   0.29668
C          C       0.18619   0.23239   0.21455
C          C       0.81381   0.23239   0.28545
C          C       0.47381   0.58868   0.24281
C          C       0.52619   0.58868   0.25719
C          C       0.47481   0.54643   0.25006
C          C       0.52519   0.54643   0.24994
C          C       0.45034   0.52413   0.25577
C          C       0.54966   0.52413   0.24423
C          C       0.44792   0.39728   0.26827
C          C       0.55208   0.39728   0.23173
C          C       0.42344   0.40868   0.36357
C          C       0.57656   0.40868   0.13642
C          C       0.39838   0.38841   0.36001
C          C       0.60162   0.38841   0.13999
C          C       0.39460   0.35313   0.27239
C          C       0.60540   0.35313   0.22761
C          C       0.41849   0.34004   0.18626
C          C       0.58151   0.34004   0.31373
C          C       0.44355   0.36044   0.18237
C          C       0.55645   0.36044   0.31763
N          N       0.36825   0.33040   0.27904
N          N       0.63175   0.33040   0.22096
C          C       0.34150   0.33984   0.20853
C          C       0.65850   0.33984   0.29146
C          C       0.31512   0.31190   0.23612
C          C       0.68488   0.31190   0.26388
C          C       0.28934   0.32418   0.16861
C          C       0.71066   0.32418   0.33139
C          C       0.26500   0.30270   0.17974
C          C       0.73500   0.30270   0.32026
C          C       0.26332   0.26545   0.26090
C          C       0.73668   0.26545   0.23910
C          C       0.28976   0.25350   0.32952
C          C       0.71024   0.25350   0.17048
C          C       0.31419   0.27541   0.31772
C          C       0.68581   0.27541   0.18228
C          C       0.02627   0.91962   0.26223
C          C       0.97373   0.91962   0.23777
C          C       0.02473   0.96129   0.27337
C          C       0.97527   0.96129   0.22663
C          C       0.05040   0.98441   0.31258
C          C       0.94960   0.98441   0.18742
C          C       0.94788   0.89664   0.23380
C          C       0.05212   0.89664   0.26620
C          C       0.92174   0.90728   0.31404
C          C       0.07826   0.90728   0.18596
C          C       0.89740   0.88521   0.30377
C          C       0.10260   0.88521   0.19623
C          C       0.89617   0.84945   0.21618
C          C       0.10383   0.84945   0.28382
C          C       0.92158   0.83789   0.14095
C          C       0.07842   0.83789   0.35905
C          C       0.94587   0.85954   0.14853
C          C       0.05413   0.85954   0.35147
C          C       0.86972   0.82161   0.19043
C          C       0.13028   0.82161   0.30957
N          N       0.84328   0.83112   0.26507
N          N       0.15672   0.83112   0.23493
C          C       0.81621   0.81069   0.25762
C          C       0.18379   0.81069   0.24238
C          C       0.79114   0.83134   0.25043
C          C       0.20886   0.83134   0.24957
C          C       0.76512   0.81375   0.24760
C          C       0.23488   0.81375   0.25240
C          C       0.76091   0.77238   0.25372
C          C       0.23909   0.77238   0.24628
C          C       0.78680   0.75176   0.26328
C          C       0.21320   0.75176   0.23672
C          C       0.81268   0.77016   0.26332
C          C       0.18732   0.77016   0.23668
C          C       0.52621   0.41990   0.24254
C          C       0.47379   0.41990   0.25746
C          C       0.52522   0.46210   0.24970
C          C       0.47478   0.46210   0.25030
C          C       0.54967   0.48439   0.25546
C          C       0.45033   0.48439   0.24454
O          O       0.37039   0.72425   0.40203
O          O       0.62961   0.72425   0.09797
O          O       0.12884   0.79259   0.39855
O          O       0.87116   0.79259   0.10145
O          O       0.16089   0.13773   0.40306
O          O       0.83911   0.13773   0.09694
O          O       0.33970   0.36919   0.12207
O          O       0.66030   0.36919   0.37794
H          H       0.57461   0.57311   0.45032
H          H       0.42539   0.57311   0.04968
H          H       0.61822   0.60576   0.44340
H          H       0.38178   0.60576   0.05660
H          H       0.58411   0.69414   0.10987
H          H       0.41589   0.69414   0.39014
H          H       0.54068   0.66028   0.10186
H          H       0.45932   0.66028   0.39814
H          H       0.64591   0.66123   0.37298
H          H       0.35409   0.66123   0.12702
H          H       0.69505   0.67231   0.36336
H          H       0.30495   0.67231   0.13664
H          H       0.74124   0.69946   0.38062
H          H       0.25876   0.69946   0.11938
H          H       0.71314   0.80238   0.10626
H          H       0.28686   0.80238   0.39374
H          H       0.66764   0.77540   0.09023
H          H       0.33236   0.77540   0.40977
H          H       0.93156   0.04039   0.14741
H          H       0.06844   0.04039   0.35259
H          H       0.07761   0.07000   0.10572
H          H       0.92239   0.07000   0.39427
H          H       0.12060   0.10526   0.11293
H          H       0.87940   0.10526   0.38706
H          H       0.08166   0.19747   0.40026
H          H       0.91834   0.19747   0.09974
H          H       0.03854   0.16196   0.40533
H          H       0.96146   0.16196   0.09467
H          H       0.13119   0.20102   0.17558
H          H       0.86881   0.20102   0.32442
H          H       0.21250   0.15499   0.42834
H          H       0.78750   0.15499   0.07166
H          H       0.25411   0.19209   0.41034
H          H       0.74589   0.19209   0.08966
H          H       0.20921   0.28262   0.13629
H          H       0.79079   0.28262   0.36371
H          H       0.16745   0.24510   0.15593
H          H       0.83255   0.24510   0.34408
H          H       0.42991   0.53801   0.26555
H          H       0.57009   0.53801   0.23445
H          H       0.42419   0.43512   0.44468
H          H       0.57581   0.43512   0.05532
H          H       0.38102   0.40062   0.43577
H          H       0.61898   0.40062   0.06423
H          H       0.41772   0.31246   0.11371
H          H       0.58228   0.31246   0.38629
H          H       0.46061   0.34832   0.10379
H          H       0.53939   0.34832   0.39621
H          H       0.36896   0.30791   0.36201
H          H       0.63104   0.30791   0.13799
H          H       0.28797   0.35247   0.10108
H          H       0.71203   0.35247   0.39892
H          H       0.24633   0.31548   0.12016
H          H       0.75367   0.31548   0.37984
H          H       0.29114   0.22533   0.39743
H          H       0.70886   0.22533   0.10257
H          H       0.33293   0.26278   0.37667
H          H       0.66707   0.26278   0.12333
H          H       0.06847   0.96756   0.35058
H          H       0.93153   0.96756   0.14942
H          H       0.92095   0.93453   0.38955
H          H       0.07905   0.93453   0.11045
H          H       0.87902   0.89695   0.37038
H          H       0.12098   0.89695   0.12962
H          H       0.92264   0.81013   0.06897
H          H       0.07736   0.81013   0.43103
H          H       0.96425   0.84792   0.08089
H          H       0.03575   0.84792   0.41911
H          H       0.84311   0.85346   0.34900
H          H       0.15689   0.85346   0.15100
H          H       0.79157   0.86336   0.24624
H          H       0.20843   0.86336   0.25377
H          H       0.74682   0.83291   0.24155
H          H       0.25318   0.83291   0.25845
H          H       0.78643   0.71969   0.26755
H          H       0.21357   0.71969   0.23245
H          H       0.83123   0.75149   0.27088
H          H       0.16877   0.75149   0.22912
H          H       0.57013   0.47057   0.26545
H          H       0.42987   0.47057   0.23455
C          C       0.00000   0.02536   0.25000
C          C       0.00000   0.98288   0.25000
C          C       0.00000   0.10755   0.25000
C          C       0.00000   0.90080   0.25000
H          H       0.00000   0.13964   0.25000
H          H       0.00000   0.86868   0.25000
C          C       0.50000   0.52506   0.25000
C          C       0.50000   0.48347   0.25000
C          C       0.50000   0.60740   0.25000
C          C       0.50000   0.40125   0.25000
H          H       0.50000   0.63955   0.25000
H          H       0.50000   0.36914   0.25000
C          C       0.55212   0.61105   0.76922
C          C       0.44788   0.61105   0.73078
C          C       0.57613   0.59922   0.86759
C          C       0.42387   0.59922   0.63242
C          C       0.60151   0.61855   0.86436
C          C       0.39849   0.61855   0.63564
C          C       0.60642   0.65324   0.77328
C          C       0.39358   0.65324   0.72673
C          C       0.58289   0.66685   0.68469
C          C       0.41711   0.66685   0.81531
C          C       0.55735   0.64753   0.68186
C          C       0.44265   0.64753   0.81814
N          N       0.63393   0.67224   0.77828
N          N       0.36607   0.67224   0.72172
C          C       0.64476   0.70663   0.69567
C          C       0.35524   0.70663   0.80432
C          C       0.67621   0.72102   0.72504
C          C       0.32379   0.72102   0.77497
C          C       0.69826   0.70121   0.80504
C          C       0.30174   0.70121   0.69496
C          C       0.72514   0.71672   0.81406
C          C       0.27486   0.71672   0.68594
C          C       0.73294   0.75427   0.74577
C          C       0.26706   0.75427   0.75423
C          C       0.70991   0.77366   0.66678
C          C       0.29009   0.77366   0.83322
C          C       0.68353   0.75775   0.65701
C          C       0.31647   0.75775   0.84298
C          C       0.97373   0.08863   0.73839
C          C       0.02627   0.08863   0.76162
C          C       0.97531   0.04696   0.72564
C          C       0.02469   0.04696   0.77436
C          C       0.94965   0.02370   0.68646
C          C       0.05035   0.02370   0.81354
C          C       0.05246   0.11094   0.75848
C          C       0.94754   0.11094   0.74151
C          C       0.07774   0.09791   0.67621
C          C       0.92226   0.09791   0.82379
C          C       0.10267   0.11842   0.67983
C          C       0.89733   0.11842   0.82018
C          C       0.10580   0.15488   0.75837
C          C       0.89420   0.15488   0.74163
C          C       0.08134   0.16899   0.83481
C          C       0.91866   0.16899   0.66519
C          C       0.05623   0.14873   0.83649
C          C       0.94377   0.14873   0.66350
N          N       0.13212   0.17761   0.75317
N          N       0.86788   0.17761   0.74683
C          C       0.15897   0.16765   0.82064
C          C       0.84103   0.16765   0.67936
C          C       0.18530   0.19575   0.79482
C          C       0.81470   0.19575   0.70518
C          C       0.21110   0.18339   0.86184
C          C       0.78890   0.18339   0.63816
C          C       0.23542   0.20494   0.85141
C          C       0.76458   0.20494   0.64858
C          C       0.23706   0.24231   0.77129
C          C       0.76294   0.24231   0.72871
C          C       0.21060   0.25434   0.70332
C          C       0.78940   0.25434   0.79668
C          C       0.18619   0.23239   0.71455
C          C       0.81381   0.23239   0.78545
C          C       0.47381   0.58868   0.74281
C          C       0.52619   0.58868   0.75719
C          C       0.47481   0.54643   0.75006
C          C       0.52519   0.54643   0.74994
C          C       0.45034   0.52413   0.75577
C          C       0.54966   0.52413   0.74424
C          C       0.44792   0.39728   0.76828
C          C       0.55208   0.39728   0.73172
C          C       0.42344   0.40868   0.86357
C          C       0.57656   0.40868   0.63642
C          C       0.39838   0.38841   0.86001
C          C       0.60162   0.38841   0.63999
C          C       0.39460   0.35313   0.77239
C          C       0.60540   0.35313   0.72761
C          C       0.41849   0.34004   0.68626
C          C       0.58151   0.34004   0.81373
C          C       0.44355   0.36044   0.68237
C          C       0.55645   0.36044   0.81763
N          N       0.36825   0.33040   0.77904
N          N       0.63175   0.33040   0.72096
C          C       0.34150   0.33984   0.70854
C          C       0.65850   0.33984   0.79146
C          C       0.31512   0.31190   0.73612
C          C       0.68488   0.31190   0.76388
C          C       0.28934   0.32418   0.66861
C          C       0.71066   0.32418   0.83140
C          C       0.26500   0.30270   0.67975
C          C       0.73500   0.30270   0.82026
C          C       0.26332   0.26545   0.76090
C          C       0.73668   0.26545   0.73910
C          C       0.28976   0.25350   0.82952
C          C       0.71024   0.25350   0.67048
C          C       0.31419   0.27541   0.81772
C          C       0.68581   0.27541   0.68228
C          C       0.02627   0.91962   0.76223
C          C       0.97373   0.91962   0.73777
C          C       0.02473   0.96129   0.77337
C          C       0.97527   0.96129   0.72663
C          C       0.05040   0.98441   0.81258
C          C       0.94960   0.98441   0.68742
C          C       0.94788   0.89664   0.73380
C          C       0.05212   0.89664   0.76620
C          C       0.92174   0.90728   0.81404
C          C       0.07826   0.90728   0.68596
C          C       0.89740   0.88521   0.80376
C          C       0.10260   0.88521   0.69623
C          C       0.89617   0.84945   0.71618
C          C       0.10383   0.84945   0.78382
C          C       0.92158   0.83789   0.64095
C          C       0.07842   0.83789   0.85905
C          C       0.94587   0.85954   0.64853
C          C       0.05413   0.85954   0.85147
C          C       0.86972   0.82161   0.69043
C          C       0.13028   0.82161   0.80957
N          N       0.84328   0.83112   0.76507
N          N       0.15672   0.83112   0.73493
C          C       0.81621   0.81069   0.75762
C          C       0.18379   0.81069   0.74238
C          C       0.79114   0.83134   0.75043
C          C       0.20886   0.83134   0.74957
C          C       0.76512   0.81375   0.74760
C          C       0.23488   0.81375   0.75239
C          C       0.76091   0.77238   0.75372
C          C       0.23909   0.77238   0.74628
C          C       0.78680   0.75176   0.76328
C          C       0.21320   0.75176   0.73672
C          C       0.81268   0.77016   0.76332
C          C       0.18732   0.77016   0.73668
C          C       0.52621   0.41990   0.74253
C          C       0.47379   0.41990   0.75747
C          C       0.52522   0.46210   0.74970
C          C       0.47478   0.46210   0.75030
C          C       0.54967   0.48439   0.75546
C          C       0.45033   0.48439   0.74454
O          O       0.37039   0.72425   0.90203
O          O       0.62961   0.72425   0.59797
O          O       0.12884   0.79259   0.89855
O          O       0.87116   0.79259   0.60145
O          O       0.16089   0.13773   0.90306
O          O       0.83911   0.13773   0.59694
O          O       0.33970   0.36919   0.62206
O          O       0.66030   0.36919   0.87793
H          H       0.57461   0.57311   0.95032
H          H       0.42539   0.57311   0.54968
H          H       0.61822   0.60576   0.94341
H          H       0.38178   0.60576   0.55660
H          H       0.58411   0.69414   0.60986
H          H       0.41589   0.69414   0.89014
H          H       0.54068   0.66028   0.60186
H          H       0.45932   0.66028   0.89814
H          H       0.64591   0.66123   0.87298
H          H       0.35409   0.66123   0.62702
H          H       0.69505   0.67231   0.86336
H          H       0.30495   0.67231   0.63664
H          H       0.74124   0.69946   0.88062
H          H       0.25876   0.69946   0.61938
H          H       0.71314   0.80238   0.60626
H          H       0.28686   0.80238   0.89373
H          H       0.66764   0.77540   0.59023
H          H       0.33236   0.77540   0.90977
H          H       0.93156   0.04039   0.64740
H          H       0.06844   0.04039   0.85259
H          H       0.07761   0.07000   0.60572
H          H       0.92239   0.07000   0.89428
H          H       0.12060   0.10526   0.61294
H          H       0.87940   0.10526   0.88706
H          H       0.08166   0.19747   0.90026
H          H       0.91834   0.19747   0.59974
H          H       0.03854   0.16196   0.90533
H          H       0.96146   0.16196   0.59467
H          H       0.13119   0.20102   0.67558
H          H       0.86881   0.20102   0.82441
H          H       0.21250   0.15499   0.92834
H          H       0.78750   0.15499   0.57166
H          H       0.25411   0.19209   0.91034
H          H       0.74589   0.19209   0.58966
H          H       0.20921   0.28262   0.63630
H          H       0.79079   0.28262   0.86371
H          H       0.16745   0.24510   0.65592
H          H       0.83255   0.24510   0.84407
H          H       0.42991   0.53801   0.76555
H          H       0.57009   0.53801   0.73445
H          H       0.42419   0.43512   0.94468
H          H       0.57581   0.43512   0.55532
H          H       0.38102   0.40062   0.93577
H          H       0.61898   0.40062   0.56424
H          H       0.41772   0.31246   0.61371
H          H       0.58228   0.31246   0.88629
H          H       0.46061   0.34832   0.60379
H          H       0.53939   0.34832   0.89621
H          H       0.36896   0.30791   0.86201
H          H       0.63104   0.30791   0.63799
H          H       0.28797   0.35247   0.60109
H          H       0.71203   0.35247   0.89892
H          H       0.24633   0.31548   0.62016
H          H       0.75367   0.31548   0.87984
H          H       0.29114   0.22533   0.89743
H          H       0.70886   0.22533   0.60257
H          H       0.33293   0.26278   0.87667
H          H       0.66707   0.26278   0.62333
H          H       0.06847   0.96756   0.85058
H          H       0.93153   0.96756   0.64942
H          H       0.92095   0.93453   0.88955
H          H       0.07905   0.93453   0.61045
H          H       0.87902   0.89695   0.87037
H          H       0.12098   0.89695   0.62962
H          H       0.92264   0.81013   0.56897
H          H       0.07736   0.81013   0.93103
H          H       0.96425   0.84792   0.58089
H          H       0.03575   0.84792   0.91910
H          H       0.84311   0.85346   0.84900
H          H       0.15689   0.85346   0.65100
H          H       0.79157   0.86336   0.74623
H          H       0.20843   0.86336   0.75376
H          H       0.74682   0.83291   0.74155
H          H       0.25318   0.83291   0.75845
H          H       0.78643   0.71969   0.76755
H          H       0.21357   0.71969   0.73245
H          H       0.83123   0.75149   0.77088
H          H       0.16877   0.75149   0.72911
H          H       0.57013   0.47057   0.76545
H          H       0.42987   0.47057   0.73455
C          C       0.00000   0.02536   0.75000
C          C       0.00000   0.98288   0.75000
C          C       0.00000   0.10755   0.75000
C          C       0.00000   0.90080   0.75000
H          H       0.00000   0.13964   0.75000
H          H       0.00000   0.86868   0.75000
C          C       0.50000   0.52506   0.75000
C          C       0.50000   0.48347   0.75000
C          C       0.50000   0.60740   0.75000
C          C       0.50000   0.40125   0.75000
H          H       0.50000   0.63955   0.75000
H          H       0.50000   0.36914   0.75000
