data_crystal

_cell_length_a    34.02150
_cell_length_b    33.04390
_cell_length_c    13.20520
_cell_angle_alpha 90.00000
_cell_angle_beta  90.00000
_cell_angle_gamma 90.00000

_space_group_name_Hall 'P 1'
_space_group_name_H-M_alt 'P 1'

loop_
_symmetry_equiv_pos_as_xyz
 'x,y,z'

loop_
_atom_site_label
_atom_site_type_symbol
_atom_site_fract_x
_atom_site_fract_y
_atom_site_fract_z
C          C       0.46372   0.95707   0.19789
C          C       0.53628   0.04293   0.19789
C          C       0.46372   0.04293   0.19789
C          C       0.53628   0.95707   0.19789
C          C       0.96372   0.45707   0.19789
C          C       0.03628   0.54293   0.19789
C          C       0.96372   0.54293   0.19789
C          C       0.03628   0.45707   0.19789
C          C       0.42812   0.02115   0.18992
C          C       0.57188   0.97885   0.18992
C          C       0.42812   0.97885   0.18992
C          C       0.57188   0.02115   0.18992
C          C       0.92812   0.52115   0.18992
C          C       0.07188   0.47885   0.18992
C          C       0.92812   0.47885   0.18992
C          C       0.07188   0.52115   0.18992
C          C       0.46418   0.08531   0.21407
C          C       0.53582   0.91469   0.21407
C          C       0.46418   0.91469   0.21407
C          C       0.53582   0.08531   0.21407
C          C       0.96418   0.58531   0.21407
C          C       0.03582   0.41469   0.21407
C          C       0.96418   0.41469   0.21407
C          C       0.03582   0.58531   0.21407
C          C       0.41409   0.09994   0.33840
C          C       0.58591   0.90006   0.33840
C          C       0.41409   0.90006   0.33840
C          C       0.58591   0.09994   0.33840
C          C       0.91409   0.59994   0.33840
C          C       0.08591   0.40006   0.33840
C          C       0.91409   0.40006   0.33840
C          C       0.08591   0.59994   0.33840
C          C       0.43071   0.10733   0.24223
C          C       0.56929   0.89267   0.24223
C          C       0.43071   0.89267   0.24223
C          C       0.56929   0.10733   0.24223
C          C       0.93071   0.60733   0.24223
C          C       0.06929   0.39267   0.24223
C          C       0.93071   0.39267   0.24223
C          C       0.06929   0.60733   0.24223
C          C       0.38254   0.12346   0.37281
C          C       0.61746   0.87654   0.37281
C          C       0.38254   0.87654   0.37281
C          C       0.61746   0.12346   0.37281
C          C       0.88254   0.62346   0.37281
C          C       0.11746   0.37654   0.37281
C          C       0.88254   0.37654   0.37281
C          C       0.11746   0.62346   0.37281
C          C       0.36700   0.15485   0.31188
C          C       0.63300   0.84515   0.31188
C          C       0.36700   0.84515   0.31188
C          C       0.63300   0.15485   0.31188
C          C       0.86700   0.65485   0.31188
C          C       0.13300   0.34515   0.31188
C          C       0.86700   0.34515   0.31188
C          C       0.13300   0.65485   0.31188
C          C       0.38384   0.16162   0.21474
C          C       0.61616   0.83838   0.21474
C          C       0.38384   0.83838   0.21474
C          C       0.61616   0.16162   0.21474
C          C       0.88384   0.66162   0.21474
C          C       0.11616   0.33838   0.21474
C          C       0.88384   0.33838   0.21474
C          C       0.11616   0.66162   0.21474
C          C       0.41525   0.13793   0.17985
C          C       0.58475   0.86207   0.17985
C          C       0.41525   0.86207   0.17985
C          C       0.58475   0.13793   0.17985
C          C       0.91525   0.63793   0.17985
C          C       0.08475   0.36207   0.17985
C          C       0.91525   0.36207   0.17985
C          C       0.08475   0.63793   0.17985
C          C       0.33578   0.17878   0.34818
C          C       0.66422   0.82122   0.34818
C          C       0.33578   0.82122   0.34818
C          C       0.66422   0.17878   0.34818
C          C       0.83578   0.67878   0.34818
C          C       0.16422   0.32122   0.34818
C          C       0.83578   0.32122   0.34818
C          C       0.16422   0.67878   0.34818
C          C       0.78133   0.27827   0.28963
C          C       0.21867   0.72173   0.28963
C          C       0.78133   0.72173   0.28963
C          C       0.21867   0.27827   0.28963
C          C       0.28133   0.77827   0.28963
C          C       0.71867   0.22173   0.28963
C          C       0.28133   0.22173   0.28963
C          C       0.71867   0.77827   0.28963
C          C       0.76549   0.26403   0.19785
C          C       0.23451   0.73597   0.19785
C          C       0.76549   0.73597   0.19785
C          C       0.23451   0.26403   0.19785
C          C       0.26549   0.76403   0.19785
C          C       0.73451   0.23597   0.19785
C          C       0.26549   0.23597   0.19785
C          C       0.73451   0.76403   0.19785
C          C       0.73455   0.23595   0.38156
C          C       0.26545   0.76405   0.38156
C          C       0.73455   0.76405   0.38156
C          C       0.26545   0.23595   0.38156
C          C       0.23455   0.73595   0.38156
C          C       0.76545   0.26405   0.38156
C          C       0.23455   0.26405   0.38156
C          C       0.76545   0.73595   0.38156
N          N       0.31129   0.19541   0.27961
N          N       0.68871   0.80459   0.27961
N          N       0.31129   0.80459   0.27961
N          N       0.68871   0.19541   0.27961
N          N       0.81129   0.69541   0.27961
N          N       0.18871   0.30459   0.27961
N          N       0.81129   0.30459   0.27961
N          N       0.18871   0.69541   0.27961
H          H       0.40167   0.03583   0.18616
H          H       0.59833   0.96417   0.18616
H          H       0.40167   0.96417   0.18616
H          H       0.59833   0.03583   0.18616
H          H       0.90167   0.53583   0.18616
H          H       0.09833   0.46417   0.18616
H          H       0.90167   0.46417   0.18616
H          H       0.09833   0.53583   0.18616
H          H       0.42518   0.07774   0.38453
H          H       0.57482   0.92226   0.38453
H          H       0.42518   0.92226   0.38453
H          H       0.57482   0.07774   0.38453
H          H       0.92518   0.57774   0.38453
H          H       0.07482   0.42226   0.38453
H          H       0.92518   0.42226   0.38453
H          H       0.07482   0.57774   0.38453
H          H       0.37109   0.11753   0.44308
H          H       0.62891   0.88247   0.44308
H          H       0.37109   0.88247   0.44308
H          H       0.62891   0.11753   0.44308
H          H       0.87109   0.61753   0.44308
H          H       0.12891   0.38247   0.44308
H          H       0.87109   0.38247   0.44308
H          H       0.12891   0.61753   0.44308
H          H       0.37403   0.18431   0.16833
H          H       0.62597   0.81569   0.16833
H          H       0.37403   0.81569   0.16833
H          H       0.62597   0.18431   0.16833
H          H       0.87403   0.68431   0.16833
H          H       0.12597   0.31569   0.16833
H          H       0.87403   0.31569   0.16833
H          H       0.12597   0.68431   0.16833
H          H       0.42712   0.14342   0.10985
H          H       0.57288   0.85658   0.10985
H          H       0.42712   0.85658   0.10985
H          H       0.57288   0.14342   0.10985
H          H       0.92712   0.64342   0.10985
H          H       0.07288   0.35658   0.10985
H          H       0.92712   0.35658   0.10985
H          H       0.07288   0.64342   0.10985
O          O       0.33162   0.18394   0.44162
O          O       0.66838   0.81606   0.44162
O          O       0.33162   0.81606   0.44162
O          O       0.66838   0.18394   0.44162
O          O       0.83162   0.68394   0.44162
O          O       0.16838   0.31606   0.44162
O          O       0.83162   0.31606   0.44162
O          O       0.16838   0.68394   0.44162
H          H       0.77644   0.27386   0.13014
H          H       0.22356   0.72614   0.13014
H          H       0.77644   0.72614   0.13014
H          H       0.22356   0.27386   0.13014
H          H       0.27644   0.77386   0.13014
H          H       0.72356   0.22614   0.13014
H          H       0.27644   0.22614   0.13014
H          H       0.72356   0.77386   0.13014
H          H       0.72407   0.22622   0.44923
H          H       0.27593   0.77378   0.44923
H          H       0.72407   0.77378   0.44923
H          H       0.27593   0.22622   0.44923
H          H       0.22407   0.72622   0.44923
H          H       0.77593   0.27378   0.44923
H          H       0.22407   0.27378   0.44923
H          H       0.77593   0.72622   0.44923
H          H       0.31667   0.18722   0.21107
H          H       0.68333   0.81278   0.21107
H          H       0.31667   0.81278   0.21107
H          H       0.68333   0.18722   0.21107
H          H       0.81667   0.68722   0.21107
H          H       0.18333   0.31278   0.21107
H          H       0.81667   0.31278   0.21107
H          H       0.18333   0.68722   0.21107
C          C       0.50000   0.10637   0.21784
C          C       0.50000   0.89363   0.21784
C          C       0.00000   0.60637   0.21784
C          C       0.00000   0.39363   0.21784
C          C       0.50000   0.97846   0.19405
C          C       0.50000   0.02154   0.19405
C          C       0.00000   0.47846   0.19405
C          C       0.00000   0.52154   0.19405
C          C       0.46372   0.95707   0.69788
C          C       0.53628   0.04293   0.69788
C          C       0.46372   0.04293   0.69788
C          C       0.53628   0.95707   0.69788
C          C       0.96372   0.45707   0.69788
C          C       0.03628   0.54293   0.69788
C          C       0.96372   0.54293   0.69788
C          C       0.03628   0.45707   0.69788
C          C       0.42812   0.02115   0.68991
C          C       0.57188   0.97885   0.68991
C          C       0.42812   0.97885   0.68991
C          C       0.57188   0.02115   0.68991
C          C       0.92812   0.52115   0.68991
C          C       0.07188   0.47885   0.68991
C          C       0.92812   0.47885   0.68991
C          C       0.07188   0.52115   0.68991
C          C       0.46418   0.08531   0.71408
C          C       0.53582   0.91469   0.71408
C          C       0.46418   0.91469   0.71408
C          C       0.53582   0.08531   0.71408
C          C       0.96418   0.58531   0.71408
C          C       0.03582   0.41469   0.71408
C          C       0.96418   0.41469   0.71408
C          C       0.03582   0.58531   0.71408
C          C       0.41409   0.09994   0.83840
C          C       0.58591   0.90006   0.83840
C          C       0.41409   0.90006   0.83840
C          C       0.58591   0.09994   0.83840
C          C       0.91409   0.59994   0.83840
C          C       0.08591   0.40006   0.83840
C          C       0.91409   0.40006   0.83840
C          C       0.08591   0.59994   0.83840
C          C       0.43071   0.10733   0.74223
C          C       0.56929   0.89267   0.74223
C          C       0.43071   0.89267   0.74223
C          C       0.56929   0.10733   0.74223
C          C       0.93071   0.60733   0.74223
C          C       0.06929   0.39267   0.74223
C          C       0.93071   0.39267   0.74223
C          C       0.06929   0.60733   0.74223
C          C       0.38254   0.12346   0.87281
C          C       0.61746   0.87654   0.87281
C          C       0.38254   0.87654   0.87281
C          C       0.61746   0.12346   0.87281
C          C       0.88254   0.62346   0.87281
C          C       0.11746   0.37654   0.87281
C          C       0.88254   0.37654   0.87281
C          C       0.11746   0.62346   0.87281
C          C       0.36700   0.15485   0.81188
C          C       0.63300   0.84515   0.81188
C          C       0.36700   0.84515   0.81188
C          C       0.63300   0.15485   0.81188
C          C       0.86700   0.65485   0.81188
C          C       0.13300   0.34515   0.81188
C          C       0.86700   0.34515   0.81188
C          C       0.13300   0.65485   0.81188
C          C       0.38384   0.16162   0.71474
C          C       0.61616   0.83838   0.71474
C          C       0.38384   0.83838   0.71474
C          C       0.61616   0.16162   0.71474
C          C       0.88384   0.66162   0.71474
C          C       0.11616   0.33838   0.71474
C          C       0.88384   0.33838   0.71474
C          C       0.11616   0.66162   0.71474
C          C       0.41525   0.13793   0.67985
C          C       0.58475   0.86207   0.67985
C          C       0.41525   0.86207   0.67985
C          C       0.58475   0.13793   0.67985
C          C       0.91525   0.63793   0.67985
C          C       0.08475   0.36207   0.67985
C          C       0.91525   0.36207   0.67985
C          C       0.08475   0.63793   0.67985
C          C       0.33578   0.17878   0.84818
C          C       0.66422   0.82122   0.84818
C          C       0.33578   0.82122   0.84818
C          C       0.66422   0.17878   0.84818
C          C       0.83578   0.67878   0.84818
C          C       0.16422   0.32122   0.84818
C          C       0.83578   0.32122   0.84818
C          C       0.16422   0.67878   0.84818
C          C       0.78133   0.27827   0.78963
C          C       0.21867   0.72173   0.78963
C          C       0.78133   0.72173   0.78963
C          C       0.21867   0.27827   0.78963
C          C       0.28133   0.77827   0.78963
C          C       0.71867   0.22173   0.78963
C          C       0.28133   0.22173   0.78963
C          C       0.71867   0.77827   0.78963
C          C       0.76549   0.26403   0.69785
C          C       0.23451   0.73597   0.69785
C          C       0.76549   0.73597   0.69785
C          C       0.23451   0.26403   0.69785
C          C       0.26549   0.76403   0.69785
C          C       0.73451   0.23597   0.69785
C          C       0.26549   0.23597   0.69785
C          C       0.73451   0.76403   0.69785
C          C       0.73455   0.23595   0.88156
C          C       0.26545   0.76405   0.88156
C          C       0.73455   0.76405   0.88156
C          C       0.26545   0.23595   0.88156
C          C       0.23455   0.73595   0.88156
C          C       0.76545   0.26405   0.88156
C          C       0.23455   0.26405   0.88156
C          C       0.76545   0.73595   0.88156
N          N       0.31129   0.19541   0.77961
N          N       0.68871   0.80459   0.77961
N          N       0.31129   0.80459   0.77961
N          N       0.68871   0.19541   0.77961
N          N       0.81129   0.69541   0.77961
N          N       0.18871   0.30459   0.77961
N          N       0.81129   0.30459   0.77961
N          N       0.18871   0.69541   0.77961
H          H       0.40167   0.03583   0.68616
H          H       0.59833   0.96417   0.68616
H          H       0.40167   0.96417   0.68616
H          H       0.59833   0.03583   0.68616
H          H       0.90167   0.53583   0.68616
H          H       0.09833   0.46417   0.68616
H          H       0.90167   0.46417   0.68616
H          H       0.09833   0.53583   0.68616
H          H       0.42518   0.07774   0.88453
H          H       0.57482   0.92226   0.88453
H          H       0.42518   0.92226   0.88453
H          H       0.57482   0.07774   0.88453
H          H       0.92518   0.57774   0.88453
H          H       0.07482   0.42226   0.88453
H          H       0.92518   0.42226   0.88453
H          H       0.07482   0.57774   0.88453
H          H       0.37109   0.11753   0.94308
H          H       0.62891   0.88247   0.94308
H          H       0.37109   0.88247   0.94308
H          H       0.62891   0.11753   0.94308
H          H       0.87109   0.61753   0.94308
H          H       0.12891   0.38247   0.94308
H          H       0.87109   0.38247   0.94308
H          H       0.12891   0.61753   0.94308
H          H       0.37403   0.18431   0.66833
H          H       0.62597   0.81569   0.66833
H          H       0.37403   0.81569   0.66833
H          H       0.62597   0.18431   0.66833
H          H       0.87403   0.68431   0.66833
H          H       0.12597   0.31569   0.66833
H          H       0.87403   0.31569   0.66833
H          H       0.12597   0.68431   0.66833
H          H       0.42712   0.14342   0.60985
H          H       0.57288   0.85658   0.60985
H          H       0.42712   0.85658   0.60985
H          H       0.57288   0.14342   0.60985
H          H       0.92712   0.64342   0.60985
H          H       0.07288   0.35658   0.60985
H          H       0.92712   0.35658   0.60985
H          H       0.07288   0.64342   0.60985
O          O       0.33162   0.18394   0.94162
O          O       0.66838   0.81606   0.94162
O          O       0.33162   0.81606   0.94162
O          O       0.66838   0.18394   0.94162
O          O       0.83162   0.68394   0.94162
O          O       0.16838   0.31606   0.94162
O          O       0.83162   0.31606   0.94162
O          O       0.16838   0.68394   0.94162
H          H       0.77644   0.27386   0.63014
H          H       0.22356   0.72614   0.63014
H          H       0.77644   0.72614   0.63014
H          H       0.22356   0.27386   0.63014
H          H       0.27644   0.77386   0.63014
H          H       0.72356   0.22614   0.63014
H          H       0.27644   0.22614   0.63014
H          H       0.72356   0.77386   0.63014
H          H       0.72407   0.22622   0.94923
H          H       0.27593   0.77378   0.94923
H          H       0.72407   0.77378   0.94923
H          H       0.27593   0.22622   0.94923
H          H       0.22407   0.72622   0.94923
H          H       0.77593   0.27378   0.94923
H          H       0.22407   0.27378   0.94923
H          H       0.77593   0.72622   0.94923
H          H       0.31667   0.18722   0.71107
H          H       0.68333   0.81278   0.71107
H          H       0.31667   0.81278   0.71107
H          H       0.68333   0.18722   0.71107
H          H       0.81667   0.68722   0.71107
H          H       0.18333   0.31278   0.71107
H          H       0.81667   0.31278   0.71107
H          H       0.18333   0.68722   0.71107
C          C       0.50000   0.10637   0.71784
C          C       0.50000   0.89363   0.71784
C          C       0.00000   0.60637   0.71784
C          C       0.00000   0.39363   0.71784
C          C       0.50000   0.97846   0.69405
C          C       0.50000   0.02154   0.69405
C          C       0.00000   0.47846   0.69405
C          C       0.00000   0.52154   0.69405
