data_crystal

_cell_length_a    18.17950
_cell_length_b    18.17950
_cell_length_c    7.07460
_cell_angle_alpha 90.00000
_cell_angle_beta  90.00000
_cell_angle_gamma 120.00000

_space_group_name_Hall 'P 1'
_space_group_name_H-M_alt 'P 1'

loop_
_symmetry_equiv_pos_as_xyz
 'x,y,z'

loop_
_atom_site_label
_atom_site_type_symbol
_atom_site_fract_x
_atom_site_fract_y
_atom_site_fract_z
C          C       0.39858   0.75156   0.28258
C          C       0.24844   0.64702   0.28258
C          C       0.35298   0.60142   0.28258
C          C       0.31398   0.73098   0.28348
C          C       0.26902   0.58300   0.28348
C          C       0.41700   0.68602   0.28348
C          C       0.47127   0.84105   0.28245
C          C       0.15895   0.63022   0.28245
C          C       0.36978   0.52873   0.28245
N          N       0.44590   0.89757   0.22912
N          N       0.10243   0.54833   0.22912
N          N       0.45167   0.55410   0.22912
C          C       0.49278   0.98538   0.20892
C          C       0.01462   0.50740   0.20892
C          C       0.49260   0.50722   0.20892
C          C       0.58087   0.03018   0.19148
C          C       0.96982   0.55069   0.19148
C          C       0.44931   0.41913   0.19148
C          C       0.62547   0.11702   0.17373
C          C       0.88298   0.50845   0.17373
C          C       0.49155   0.37453   0.17373
C          C       0.58148   0.16320   0.17181
C          C       0.83680   0.41828   0.17181
C          C       0.58172   0.41852   0.17181
C          C       0.49143   0.11736   0.18348
C          C       0.88264   0.37407   0.18348
C          C       0.62593   0.50857   0.18348
C          C       0.44950   0.03060   0.20287
C          C       0.96940   0.41890   0.20287
C          C       0.58110   0.55050   0.20287
C          C       0.62539   0.25082   0.16556
C          C       0.74918   0.37457   0.16556
C          C       0.62543   0.37461   0.16556
N          N       0.71018   0.28976   0.16598
N          N       0.71024   0.42042   0.16598
N          N       0.57958   0.28982   0.16598
O          O       0.54411   0.86233   0.32221
O          O       0.13767   0.68178   0.32221
O          O       0.31822   0.45589   0.32221
H          H       0.29603   0.78020   0.28765
H          H       0.21980   0.51583   0.28765
H          H       0.48417   0.70397   0.28765
H          H       0.38488   0.87385   0.19469
H          H       0.12615   0.51103   0.19469
H          H       0.48897   0.61512   0.19469
H          H       0.61772   0.99752   0.19036
H          H       0.00248   0.62020   0.19036
H          H       0.37980   0.38228   0.19036
H          H       0.69491   0.14996   0.16352
H          H       0.85004   0.54495   0.16352
H          H       0.45505   0.30509   0.16352
H          H       0.45532   0.15088   0.18244
H          H       0.84912   0.30444   0.18244
H          H       0.69556   0.54468   0.18244
H          H       0.38015   0.99772   0.21498
H          H       0.00228   0.38243   0.21498
H          H       0.61757   0.61985   0.21498
C          C       0.39858   0.75156   0.78258
C          C       0.24844   0.64702   0.78258
C          C       0.35298   0.60142   0.78258
C          C       0.31398   0.73098   0.78348
C          C       0.26902   0.58300   0.78348
C          C       0.41700   0.68602   0.78348
C          C       0.47127   0.84105   0.78245
C          C       0.15895   0.63022   0.78245
C          C       0.36978   0.52873   0.78245
N          N       0.44590   0.89757   0.72912
N          N       0.10243   0.54833   0.72912
N          N       0.45167   0.55410   0.72912
C          C       0.49278   0.98538   0.70892
C          C       0.01462   0.50740   0.70892
C          C       0.49260   0.50722   0.70892
C          C       0.58087   0.03018   0.69148
C          C       0.96982   0.55069   0.69148
C          C       0.44931   0.41913   0.69148
C          C       0.62547   0.11702   0.67373
C          C       0.88298   0.50845   0.67373
C          C       0.49155   0.37453   0.67373
C          C       0.58148   0.16320   0.67181
C          C       0.83680   0.41828   0.67181
C          C       0.58172   0.41852   0.67181
C          C       0.49143   0.11736   0.68348
C          C       0.88264   0.37407   0.68348
C          C       0.62593   0.50857   0.68348
C          C       0.44950   0.03060   0.70288
C          C       0.96940   0.41890   0.70288
C          C       0.58110   0.55050   0.70288
C          C       0.62539   0.25082   0.66556
C          C       0.74918   0.37457   0.66556
C          C       0.62543   0.37461   0.66556
N          N       0.71018   0.28976   0.66598
N          N       0.71024   0.42042   0.66598
N          N       0.57958   0.28982   0.66598
O          O       0.54411   0.86233   0.82221
O          O       0.13767   0.68178   0.82221
O          O       0.31822   0.45589   0.82221
H          H       0.29603   0.78020   0.78765
H          H       0.21980   0.51583   0.78765
H          H       0.48417   0.70397   0.78765
H          H       0.38488   0.87385   0.69469
H          H       0.12615   0.51103   0.69469
H          H       0.48897   0.61512   0.69469
H          H       0.61772   0.99752   0.69036
H          H       0.00248   0.62020   0.69036
H          H       0.37980   0.38228   0.69036
H          H       0.69491   0.14996   0.66352
H          H       0.85004   0.54495   0.66352
H          H       0.45505   0.30509   0.66352
H          H       0.45532   0.15088   0.68244
H          H       0.84912   0.30444   0.68244
H          H       0.69556   0.54468   0.68244
H          H       0.38015   0.99772   0.71498
H          H       0.00228   0.38243   0.71498
H          H       0.61757   0.61985   0.71498
