data_crystal

_cell_length_a    38.64350
_cell_length_b    38.64350
_cell_length_c    9.96440
_cell_angle_alpha 90.00000
_cell_angle_beta  90.00000
_cell_angle_gamma 120.00000

_space_group_name_Hall 'P 1'
_space_group_name_H-M_alt 'P 1'

loop_
_symmetry_equiv_pos_as_xyz
 'x,y,z'

loop_
_atom_site_label
_atom_site_type_symbol
_atom_site_fract_x
_atom_site_fract_y
_atom_site_fract_z
C          C       0.77395   0.20712   0.32699
C          C       0.79288   0.56683   0.32699
C          C       0.43317   0.22605   0.32699
C          C       0.22605   0.79288   0.32699
C          C       0.20712   0.43317   0.32699
C          C       0.56683   0.77395   0.32699
C          C       0.80762   0.24431   0.29666
C          C       0.75569   0.56331   0.29666
C          C       0.43669   0.19238   0.29666
C          C       0.19238   0.75569   0.29666
C          C       0.24431   0.43669   0.29666
C          C       0.56331   0.80762   0.29666
C          C       0.80685   0.26740   0.18804
C          C       0.73260   0.53945   0.18804
C          C       0.46055   0.19315   0.18804
C          C       0.19315   0.73260   0.18804
C          C       0.26740   0.46055   0.18804
C          C       0.53945   0.80685   0.18804
C          C       0.77178   0.25245   0.11022
C          C       0.74755   0.51933   0.11022
C          C       0.48067   0.22822   0.11022
C          C       0.22822   0.74755   0.11022
C          C       0.25245   0.48067   0.11022
C          C       0.51933   0.77178   0.11022
C          C       0.73798   0.21550   0.14172
C          C       0.78450   0.52248   0.14172
C          C       0.47752   0.26202   0.14172
C          C       0.26202   0.78450   0.14172
C          C       0.21550   0.47752   0.14172
C          C       0.52248   0.73798   0.14172
C          C       0.00063   0.48160   0.24072
C          C       0.51840   0.51903   0.24072
C          C       0.48097   0.99937   0.24072
C          C       0.99937   0.51840   0.24072
C          C       0.48160   0.48097   0.24072
C          C       0.51903   0.00063   0.24072
C          C       0.96531   0.44334   0.24104
C          C       0.55666   0.52197   0.24104
C          C       0.47803   0.03469   0.24104
C          C       0.03469   0.55666   0.24104
C          C       0.44334   0.47803   0.24104
C          C       0.52197   0.96531   0.24104
C          C       0.93522   0.43308   0.33820
C          C       0.56692   0.50214   0.33820
C          C       0.49786   0.06478   0.33820
C          C       0.06478   0.56692   0.33820
C          C       0.43308   0.49786   0.33820
C          C       0.50214   0.93522   0.33820
C          C       0.90072   0.39512   0.34212
C          C       0.60488   0.50560   0.34212
C          C       0.49440   0.09928   0.34212
C          C       0.09928   0.60488   0.34212
C          C       0.39512   0.49440   0.34212
C          C       0.50560   0.90072   0.34212
C          C       0.89521   0.36599   0.24683
C          C       0.63401   0.52922   0.24683
C          C       0.47078   0.10479   0.24683
C          C       0.10479   0.63401   0.24683
C          C       0.36599   0.47078   0.24683
C          C       0.52922   0.89521   0.24683
C          C       0.92489   0.37540   0.14868
C          C       0.62460   0.54949   0.14868
C          C       0.45051   0.07511   0.14868
C          C       0.07511   0.62460   0.14868
C          C       0.37540   0.45051   0.14868
C          C       0.54949   0.92489   0.14868
C          C       0.95941   0.41347   0.14658
C          C       0.58653   0.54594   0.14658
C          C       0.45406   0.04059   0.14658
C          C       0.04059   0.58653   0.14658
C          C       0.41347   0.45406   0.14658
C          C       0.54594   0.95941   0.14658
N          N       0.86170   0.33000   0.25640
N          N       0.67000   0.53170   0.25640
N          N       0.46830   0.13830   0.25640
N          N       0.13830   0.67000   0.25640
N          N       0.33000   0.46830   0.25640
N          N       0.53170   0.86170   0.25640
C          C       0.84005   0.30460   0.15701
C          C       0.69540   0.53545   0.15701
C          C       0.46455   0.15995   0.15701
C          C       0.15995   0.69540   0.15701
C          C       0.30460   0.46455   0.15701
C          C       0.53545   0.84005   0.15701
C          C       0.55686   0.03677   0.24109
C          C       0.96323   0.52009   0.24109
C          C       0.47991   0.44314   0.24109
C          C       0.44314   0.96323   0.24109
C          C       0.03677   0.47991   0.24109
C          C       0.52009   0.55686   0.24109
C          C       0.58817   0.04201   0.32834
C          C       0.95799   0.54616   0.32834
C          C       0.45384   0.41183   0.32834
C          C       0.41183   0.95799   0.32834
C          C       0.04201   0.45384   0.32834
C          C       0.54616   0.58817   0.32834
C          C       0.62611   0.07671   0.32549
C          C       0.92329   0.54940   0.32549
C          C       0.45060   0.37389   0.32549
C          C       0.37389   0.92329   0.32549
C          C       0.07671   0.45060   0.32549
C          C       0.54940   0.62611   0.32549
C          C       0.63421   0.10765   0.23373
C          C       0.89235   0.52656   0.23373
C          C       0.47344   0.36579   0.23373
C          C       0.36579   0.89235   0.23373
C          C       0.10765   0.47344   0.23373
C          C       0.52656   0.63421   0.23373
C          C       0.60348   0.10335   0.14778
C          C       0.89665   0.50013   0.14778
C          C       0.49987   0.39652   0.14778
C          C       0.39652   0.89665   0.14778
C          C       0.10335   0.49987   0.14778
C          C       0.50013   0.60348   0.14778
C          C       0.56571   0.06861   0.15228
C          C       0.93139   0.49710   0.15228
C          C       0.50290   0.43429   0.15228
C          C       0.43429   0.93139   0.15228
C          C       0.06861   0.50290   0.15228
C          C       0.49710   0.56571   0.15228
N          N       0.66974   0.14161   0.21989
N          N       0.85839   0.52813   0.21989
N          N       0.47187   0.33026   0.21989
N          N       0.33026   0.85839   0.21989
N          N       0.14161   0.47187   0.21989
N          N       0.52813   0.66974   0.21989
C          C       0.70480   0.15548   0.28571
C          C       0.84452   0.54932   0.28571
C          C       0.45068   0.29520   0.28571
C          C       0.29520   0.84452   0.28571
C          C       0.15548   0.45068   0.28571
C          C       0.54932   0.70480   0.28571
C          C       0.73842   0.19231   0.25106
C          C       0.80769   0.54611   0.25106
C          C       0.45389   0.26158   0.25106
C          C       0.26158   0.80769   0.25106
C          C       0.19231   0.45389   0.25106
C          C       0.54611   0.73842   0.25106
H          H       0.77556   0.19112   0.40627
H          H       0.80888   0.58444   0.40627
H          H       0.41556   0.22444   0.40627
H          H       0.22444   0.80888   0.40627
H          H       0.19112   0.41556   0.40627
H          H       0.58444   0.77556   0.40627
H          H       0.83275   0.25438   0.35436
H          H       0.74562   0.57837   0.35436
H          H       0.42163   0.16725   0.35436
H          H       0.16725   0.74562   0.35436
H          H       0.25438   0.42163   0.35436
H          H       0.57837   0.83275   0.35436
H          H       0.77045   0.26849   0.03048
H          H       0.73151   0.50196   0.03048
H          H       0.49804   0.22955   0.03048
H          H       0.22955   0.73151   0.03048
H          H       0.26849   0.49804   0.03048
H          H       0.50196   0.77045   0.03048
H          H       0.71299   0.20573   0.08350
H          H       0.79427   0.50726   0.08350
H          H       0.49274   0.28701   0.08350
H          H       0.28701   0.79427   0.08350
H          H       0.20573   0.49274   0.08350
H          H       0.50726   0.71299   0.08350
H          H       0.93848   0.45361   0.40687
H          H       0.54639   0.48487   0.40687
H          H       0.51513   0.06152   0.40687
H          H       0.06152   0.54639   0.40687
H          H       0.45361   0.51513   0.40687
H          H       0.48487   0.93848   0.40687
H          H       0.87948   0.38879   0.41418
H          H       0.61121   0.49069   0.41418
H          H       0.50931   0.12052   0.41418
H          H       0.12052   0.61121   0.41418
H          H       0.38879   0.50931   0.41418
H          H       0.49069   0.87948   0.41418
H          H       0.92163   0.35442   0.07956
H          H       0.64558   0.56721   0.07956
H          H       0.43279   0.07837   0.07956
H          H       0.07837   0.64558   0.07956
H          H       0.35442   0.43279   0.07956
H          H       0.56721   0.92163   0.07956
H          H       0.98048   0.41921   0.07547
H          H       0.58079   0.56127   0.07547
H          H       0.43873   0.01952   0.07547
H          H       0.01952   0.58079   0.07547
H          H       0.41921   0.43873   0.07547
H          H       0.56127   0.98048   0.07547
H          H       0.84676   0.31290   0.05858
H          H       0.68710   0.53386   0.05858
H          H       0.46614   0.15324   0.05858
H          H       0.15324   0.68710   0.05858
H          H       0.31290   0.46614   0.05858
H          H       0.53386   0.84676   0.05858
H          H       0.58374   0.02018   0.39474
H          H       0.97982   0.56356   0.39474
H          H       0.43644   0.41626   0.39474
H          H       0.41626   0.97982   0.39474
H          H       0.02018   0.43644   0.39474
H          H       0.56356   0.58374   0.39474
H          H       0.64771   0.07907   0.39002
H          H       0.92093   0.56864   0.39002
H          H       0.43136   0.35229   0.39002
H          H       0.35229   0.92093   0.39002
H          H       0.07907   0.43136   0.39002
H          H       0.56864   0.64771   0.39002
H          H       0.60857   0.12556   0.08102
H          H       0.87444   0.48301   0.08102
H          H       0.51699   0.39143   0.08102
H          H       0.39143   0.87444   0.08102
H          H       0.12556   0.51699   0.08102
H          H       0.48301   0.60857   0.08102
H          H       0.54447   0.06679   0.08960
H          H       0.93321   0.47768   0.08960
H          H       0.52232   0.45553   0.08960
H          H       0.45553   0.93321   0.08960
H          H       0.06679   0.52232   0.08960
H          H       0.47768   0.54447   0.08960
H          H       0.70703   0.13914   0.36251
H          H       0.86086   0.56789   0.36251
H          H       0.43211   0.29297   0.36251
H          H       0.29297   0.86086   0.36251
H          H       0.13914   0.43211   0.36251
H          H       0.56789   0.70703   0.36251
C          C       0.77395   0.20712   0.82699
C          C       0.79288   0.56683   0.82699
C          C       0.43317   0.22605   0.82699
C          C       0.22605   0.79288   0.82699
C          C       0.20712   0.43317   0.82699
C          C       0.56683   0.77395   0.82699
C          C       0.80762   0.24431   0.79666
C          C       0.75569   0.56331   0.79666
C          C       0.43669   0.19238   0.79666
C          C       0.19238   0.75569   0.79666
C          C       0.24431   0.43669   0.79666
C          C       0.56331   0.80762   0.79666
C          C       0.80685   0.26740   0.68805
C          C       0.73260   0.53945   0.68805
C          C       0.46055   0.19315   0.68805
C          C       0.19315   0.73260   0.68805
C          C       0.26740   0.46055   0.68805
C          C       0.53945   0.80685   0.68805
C          C       0.77178   0.25245   0.61022
C          C       0.74755   0.51933   0.61022
C          C       0.48067   0.22822   0.61022
C          C       0.22822   0.74755   0.61022
C          C       0.25245   0.48067   0.61022
C          C       0.51933   0.77178   0.61022
C          C       0.73798   0.21550   0.64172
C          C       0.78450   0.52248   0.64172
C          C       0.47752   0.26202   0.64172
C          C       0.26202   0.78450   0.64172
C          C       0.21550   0.47752   0.64172
C          C       0.52248   0.73798   0.64172
C          C       0.00063   0.48160   0.74072
C          C       0.51840   0.51903   0.74072
C          C       0.48097   0.99937   0.74072
C          C       0.99937   0.51840   0.74072
C          C       0.48160   0.48097   0.74072
C          C       0.51903   0.00063   0.74072
C          C       0.96531   0.44334   0.74104
C          C       0.55666   0.52197   0.74104
C          C       0.47803   0.03469   0.74104
C          C       0.03469   0.55666   0.74104
C          C       0.44334   0.47803   0.74104
C          C       0.52197   0.96531   0.74104
C          C       0.93522   0.43308   0.83820
C          C       0.56692   0.50214   0.83820
C          C       0.49786   0.06478   0.83820
C          C       0.06478   0.56692   0.83820
C          C       0.43308   0.49786   0.83820
C          C       0.50214   0.93522   0.83820
C          C       0.90072   0.39512   0.84212
C          C       0.60488   0.50560   0.84212
C          C       0.49440   0.09928   0.84212
C          C       0.09928   0.60488   0.84212
C          C       0.39512   0.49440   0.84212
C          C       0.50560   0.90072   0.84212
C          C       0.89521   0.36599   0.74683
C          C       0.63401   0.52922   0.74683
C          C       0.47078   0.10479   0.74683
C          C       0.10479   0.63401   0.74683
C          C       0.36599   0.47078   0.74683
C          C       0.52922   0.89521   0.74683
C          C       0.92489   0.37540   0.64868
C          C       0.62460   0.54949   0.64868
C          C       0.45051   0.07511   0.64868
C          C       0.07511   0.62460   0.64868
C          C       0.37540   0.45051   0.64868
C          C       0.54949   0.92489   0.64868
C          C       0.95941   0.41347   0.64658
C          C       0.58653   0.54594   0.64658
C          C       0.45406   0.04059   0.64658
C          C       0.04059   0.58653   0.64658
C          C       0.41347   0.45406   0.64658
C          C       0.54594   0.95941   0.64658
N          N       0.86170   0.33000   0.75640
N          N       0.67000   0.53170   0.75640
N          N       0.46830   0.13830   0.75640
N          N       0.13830   0.67000   0.75640
N          N       0.33000   0.46830   0.75640
N          N       0.53170   0.86170   0.75640
C          C       0.84005   0.30460   0.65701
C          C       0.69540   0.53545   0.65701
C          C       0.46455   0.15995   0.65701
C          C       0.15995   0.69540   0.65701
C          C       0.30460   0.46455   0.65701
C          C       0.53545   0.84005   0.65701
C          C       0.55686   0.03677   0.74109
C          C       0.96323   0.52009   0.74109
C          C       0.47991   0.44314   0.74109
C          C       0.44314   0.96323   0.74109
C          C       0.03677   0.47991   0.74109
C          C       0.52009   0.55686   0.74109
C          C       0.58817   0.04201   0.82835
C          C       0.95799   0.54616   0.82835
C          C       0.45384   0.41183   0.82835
C          C       0.41183   0.95799   0.82835
C          C       0.04201   0.45384   0.82835
C          C       0.54616   0.58817   0.82835
C          C       0.62611   0.07671   0.82549
C          C       0.92329   0.54940   0.82549
C          C       0.45060   0.37389   0.82549
C          C       0.37389   0.92329   0.82549
C          C       0.07671   0.45060   0.82549
C          C       0.54940   0.62611   0.82549
C          C       0.63421   0.10765   0.73373
C          C       0.89235   0.52656   0.73373
C          C       0.47344   0.36579   0.73373
C          C       0.36579   0.89235   0.73373
C          C       0.10765   0.47344   0.73373
C          C       0.52656   0.63421   0.73373
C          C       0.60348   0.10335   0.64778
C          C       0.89665   0.50013   0.64778
C          C       0.49987   0.39652   0.64778
C          C       0.39652   0.89665   0.64778
C          C       0.10335   0.49987   0.64778
C          C       0.50013   0.60348   0.64778
C          C       0.56571   0.06861   0.65228
C          C       0.93139   0.49710   0.65228
C          C       0.50290   0.43429   0.65228
C          C       0.43429   0.93139   0.65228
C          C       0.06861   0.50290   0.65228
C          C       0.49710   0.56571   0.65228
N          N       0.66974   0.14161   0.71989
N          N       0.85839   0.52813   0.71989
N          N       0.47187   0.33026   0.71989
N          N       0.33026   0.85839   0.71989
N          N       0.14161   0.47187   0.71989
N          N       0.52813   0.66974   0.71989
C          C       0.70480   0.15548   0.78572
C          C       0.84452   0.54932   0.78572
C          C       0.45068   0.29520   0.78572
C          C       0.29520   0.84452   0.78572
C          C       0.15548   0.45068   0.78572
C          C       0.54932   0.70480   0.78572
C          C       0.73842   0.19231   0.75106
C          C       0.80769   0.54611   0.75106
C          C       0.45389   0.26158   0.75106
C          C       0.26158   0.80769   0.75106
C          C       0.19231   0.45389   0.75106
C          C       0.54611   0.73842   0.75106
H          H       0.77556   0.19112   0.90627
H          H       0.80888   0.58444   0.90627
H          H       0.41556   0.22444   0.90627
H          H       0.22444   0.80888   0.90627
H          H       0.19112   0.41556   0.90627
H          H       0.58444   0.77556   0.90627
H          H       0.83275   0.25438   0.85436
H          H       0.74562   0.57837   0.85436
H          H       0.42163   0.16725   0.85436
H          H       0.16725   0.74562   0.85436
H          H       0.25438   0.42163   0.85436
H          H       0.57837   0.83275   0.85436
H          H       0.77045   0.26849   0.53048
H          H       0.73151   0.50196   0.53048
H          H       0.49804   0.22955   0.53048
H          H       0.22955   0.73151   0.53048
H          H       0.26849   0.49804   0.53048
H          H       0.50196   0.77045   0.53048
H          H       0.71299   0.20573   0.58350
H          H       0.79427   0.50726   0.58350
H          H       0.49274   0.28701   0.58350
H          H       0.28701   0.79427   0.58350
H          H       0.20573   0.49274   0.58350
H          H       0.50726   0.71299   0.58350
H          H       0.93848   0.45361   0.90687
H          H       0.54639   0.48487   0.90687
H          H       0.51513   0.06152   0.90687
H          H       0.06152   0.54639   0.90687
H          H       0.45361   0.51513   0.90687
H          H       0.48487   0.93848   0.90687
H          H       0.87948   0.38879   0.91418
H          H       0.61121   0.49069   0.91418
H          H       0.50931   0.12052   0.91418
H          H       0.12052   0.61121   0.91418
H          H       0.38879   0.50931   0.91418
H          H       0.49069   0.87948   0.91418
H          H       0.92163   0.35442   0.57956
H          H       0.64558   0.56721   0.57956
H          H       0.43279   0.07837   0.57956
H          H       0.07837   0.64558   0.57956
H          H       0.35442   0.43279   0.57956
H          H       0.56721   0.92163   0.57956
H          H       0.98048   0.41921   0.57547
H          H       0.58079   0.56127   0.57547
H          H       0.43873   0.01952   0.57547
H          H       0.01952   0.58079   0.57547
H          H       0.41921   0.43873   0.57547
H          H       0.56127   0.98048   0.57547
H          H       0.84676   0.31290   0.55858
H          H       0.68710   0.53386   0.55858
H          H       0.46614   0.15324   0.55858
H          H       0.15324   0.68710   0.55858
H          H       0.31290   0.46614   0.55858
H          H       0.53386   0.84676   0.55858
H          H       0.58374   0.02018   0.89473
H          H       0.97982   0.56356   0.89473
H          H       0.43644   0.41626   0.89473
H          H       0.41626   0.97982   0.89473
H          H       0.02018   0.43644   0.89473
H          H       0.56356   0.58374   0.89473
H          H       0.64771   0.07907   0.89002
H          H       0.92093   0.56864   0.89002
H          H       0.43136   0.35229   0.89002
H          H       0.35229   0.92093   0.89002
H          H       0.07907   0.43136   0.89002
H          H       0.56864   0.64771   0.89002
H          H       0.60857   0.12556   0.58102
H          H       0.87444   0.48301   0.58102
H          H       0.51699   0.39143   0.58102
H          H       0.39143   0.87444   0.58102
H          H       0.12556   0.51699   0.58102
H          H       0.48301   0.60857   0.58102
H          H       0.54447   0.06679   0.58960
H          H       0.93321   0.47768   0.58960
H          H       0.52232   0.45553   0.58960
H          H       0.45553   0.93321   0.58960
H          H       0.06679   0.52232   0.58960
H          H       0.47768   0.54447   0.58960
H          H       0.70703   0.13914   0.86251
H          H       0.86086   0.56789   0.86251
H          H       0.43211   0.29297   0.86251
H          H       0.29297   0.86086   0.86251
H          H       0.13914   0.43211   0.86251
H          H       0.56789   0.70703   0.86251
