data_crystal

_cell_length_a    29.22520
_cell_length_b    48.89700
_cell_length_c    15.47120
_cell_angle_alpha 69.05940
_cell_angle_beta  75.64870
_cell_angle_gamma 84.79030

_space_group_name_Hall 'P 1'
_space_group_name_H-M_alt 'P 1'

loop_
_symmetry_equiv_pos_as_xyz
 'x,y,z'

loop_
_atom_site_label
_atom_site_type_symbol
_atom_site_fract_x
_atom_site_fract_y
_atom_site_fract_z
C          C       0.60502   0.87534   0.20596
C          C       0.57621   0.89923   0.17117
C          C       0.72012   0.82131   0.18901
C          C       0.68839   0.84080   0.14270
C          C       0.57187   0.92273   0.20344
C          C       0.60049   0.92510   0.26074
C          C       0.63181   0.90205   0.29114
C          C       0.63303   0.87699   0.26632
C          C       0.70443   0.86848   0.07730
C          C       0.75120   0.87683   0.06078
C          C       0.78286   0.85748   0.10817
C          C       0.76700   0.82960   0.17215
C          C       0.40998   0.74796   0.20865
C          C       0.39229   0.72236   0.28418
C          C       0.34447   0.71529   0.30748
C          C       0.31339   0.73389   0.25616
C          C       0.33089   0.75976   0.18183
C          C       0.37875   0.76681   0.15853
C          C       0.52746   0.68775   0.16728
C          C       0.49213   0.70940   0.15088
C          C       0.45371   0.70313   0.12108
C          C       0.44780   0.67529   0.11976
C          C       0.48224   0.65356   0.13947
C          C       0.52288   0.66032   0.16063
C          C       0.26285   0.72677   0.27926
C          C       0.59883   0.95204   0.28503
C          C       0.17885   0.35542   0.12074
C          C       0.18105   0.33577   0.07223
C          C       0.22271   0.33431   0.00505
C          C       0.26244   0.35056   0.00784
C          C       0.26108   0.36897   0.04480
C          C       0.21846   0.37184   0.10734
N          N       0.30508   0.40161   0.08161
C          C       0.30510   0.38303   0.03879
C          C       0.38969   0.39826   0.08800
C          C       0.34676   0.41379   0.08775
C          C       0.34367   0.44085   0.10100
C          C       0.38281   0.45247   0.11306
C          C       0.42587   0.43703   0.11278
C          C       0.42874   0.40983   0.10006
N          N       0.50747   0.43242   0.13456
C          C       0.46731   0.44872   0.12795
N          N       0.46614   0.47597   0.13334
C          C       0.50443   0.48689   0.14548
N          N       0.54388   0.47011   0.15297
C          C       0.54567   0.44285   0.14795
C          C       0.59728   0.40077   0.12447
C          C       0.58981   0.42534   0.15338
C          C       0.62570   0.43368   0.18492
C          C       0.66839   0.41829   0.18534
C          C       0.67665   0.39458   0.15296
C          C       0.64037   0.38557   0.12380
C          C       0.54244   0.52740   0.16675
C          C       0.50425   0.51716   0.14652
C          C       0.46648   0.53633   0.12596
C          C       0.46687   0.56505   0.12511
C          C       0.50525   0.57520   0.14527
C          C       0.54282   0.55605   0.16594
C          C       0.74039   0.36368   0.10237
N          N       0.72187   0.38022   0.15216
C          C       0.81446   0.35407   0.17192
C          C       0.78745   0.35035   0.10748
C          C       0.85815   0.34027   0.17635
C          C       0.87655   0.32284   0.12059
C          C       0.85156   0.32009   0.05713
C          C       0.80760   0.33349   0.05100
N          N       0.50760   0.60424   0.14744
C          C       0.47537   0.62457   0.13455
C          C       0.88160   0.23943   0.13191
C          C       0.88229   0.25852   0.18108
C          C       0.84188   0.26098   0.24938
C          C       0.80038   0.24639   0.26297
C          C       0.79882   0.22847   0.21048
C          C       0.84016   0.22446   0.14644
N          N       0.75175   0.19467   0.18709
C          C       0.75348   0.21521   0.22101
C          C       0.66471   0.19379   0.20367
C          C       0.70955   0.18041   0.19337
C          C       0.71351   0.15262   0.18557
C          C       0.67394   0.13835   0.18677
C          C       0.62925   0.15169   0.19628
C          C       0.62495   0.17940   0.20576
N          N       0.54770   0.15201   0.17949
C          C       0.58732   0.13662   0.19714
N          N       0.58749   0.10713   0.21941
C          C       0.54853   0.09298   0.22390
N          N       0.50906   0.10882   0.20486
C          C       0.50849   0.13845   0.18255
C          C       0.46195   0.18481   0.16706
C          C       0.46517   0.15596   0.16665
C          C       0.42631   0.14413   0.15385
C          C       0.38500   0.16065   0.14335
C          C       0.38129   0.18900   0.14747
C          C       0.42076   0.20121   0.15695
C          C       0.51152   0.04541   0.24698
C          C       0.54968   0.06059   0.24905
C          C       0.58980   0.04450   0.27370
C          C       0.59299   0.01444   0.28997
C          C       0.55620   0.00031   0.28084
C          C       0.51483   0.01529   0.26312
C          C       0.32459   0.22732   0.16750
N          N       0.33690   0.20426   0.14388
C          C       0.24248   0.22879   0.13252
C          C       0.27796   0.24104   0.16176
C          C       0.20044   0.24399   0.12066
C          C       0.18998   0.26971   0.14291
C          C       0.22155   0.27901   0.18252
C          C       0.26568   0.26582   0.18739
N          N       0.56108   0.02956   0.27729
O          O       0.85987   0.85080   0.13262
C          C       0.83206   0.86667   0.08980
O          O       0.24684   0.70421   0.34227
C          C       0.92419   0.27715   0.15707
S          S       0.02883   0.32634   0.10866
C          C       0.14104   0.31551   0.09763
S          S       0.09279   0.26479   0.15138
C          C       0.14515   0.28600   0.12754
S          S       0.08324   0.33158   0.09029
C          C       0.92141   0.30655   0.13138
S          S       0.01907   0.25970   0.16421
C          C       0.00892   0.29448   0.13181
C          C       0.05536   0.29665   0.12521
C          C       0.49696   0.73831   0.16196
S          S       0.47267   0.79082   0.18709
C          C       0.60173   0.84819   0.18502
S          S       0.62830   0.79832   0.14545
C          C       0.63893   0.83189   0.16138
S          S       0.54331   0.83627   0.19471
C          C       0.46051   0.75578   0.18313
S          S       0.55595   0.75092   0.14722
C          C       0.53543   0.78467   0.16581
C          C       0.56514   0.80401   0.16696
H          H       0.55657   0.89953   0.11957
H          H       0.70846   0.79981   0.23930
H          H       0.54688   0.93959   0.18172
H          H       0.65420   0.90313   0.33623
H          H       0.65505   0.85874   0.29581
H          H       0.68069   0.88364   0.03909
H          H       0.76264   0.89844   0.01116
H          H       0.79069   0.81423   0.20967
H          H       0.41554   0.70773   0.32425
H          H       0.33185   0.69527   0.36549
H          H       0.30752   0.77443   0.14149
H          H       0.39165   0.78672   0.10033
H          H       0.55849   0.69159   0.18712
H          H       0.42813   0.71969   0.09740
H          H       0.41674   0.67105   0.10022
H          H       0.55075   0.64428   0.17401
H          H       0.23933   0.74160   0.23963
H          H       0.62946   0.95765   0.30267
H          H       0.14711   0.35699   0.17266
H          H       0.22496   0.31956   0.03397
H          H       0.29475   0.34811   0.05698
H          H       0.21626   0.38588   0.14870
H          H       0.33786   0.37684   0.49960
H          H       0.39299   0.37691   0.08093
H          H       0.31076   0.45304   0.10204
H          H       0.37915   0.47343   0.12323
H          H       0.46106   0.39710   0.10057
H          H       0.57022   0.39358   0.10058
H          H       0.62099   0.45228   0.20858
H          H       0.69574   0.42534   0.20877
H          H       0.64482   0.36682   0.10103
H          H       0.57213   0.51326   0.18365
H          H       0.43649   0.52912   0.11077
H          H       0.43671   0.57869   0.10956
H          H       0.57248   0.56336   0.18218
H          H       0.72228   0.36021   0.05407
H          H       0.80061   0.36711   0.21631
H          H       0.87734   0.34255   0.22498
H          H       0.86604   0.30699   0.01309
H          H       0.78913   0.33048   0.00239
H          H       0.44295   0.62092   0.11872
H          H       0.91246   0.23707   0.07945
H          H       0.84203   0.27497   0.28989
H          H       0.76918   0.24946   0.31372
H          H       0.84008   0.21056   0.10538
H          H       0.72173   0.22225   0.26103
H          H       0.66021   0.21548   0.20812
H          H       0.74766   0.14202   0.17723
H          H       0.67855   0.11708   0.17856
H          H       0.59095   0.19021   0.21351
H          H       0.49114   0.19469   0.17655
H          H       0.42770   0.12209   0.15257
H          H       0.35519   0.15116   0.13452
H          H       0.42022   0.22328   0.15739
H          H       0.47986   0.05698   0.22934
H          H       0.61951   0.05520   0.27853
H          H       0.62435   0.00335   0.30945
H          H       0.48589   0.00430   0.25671
H          H       0.34768   0.23650   0.19490
H          H       0.24904   0.20833   0.11944
H          H       0.17610   0.23559   0.09366
H          H       0.21261   0.29709   0.20841
H          H       0.29008   0.27490   0.21238
H          H       0.84384   0.88789   0.03830
C          C       0.53973   0.71510   0.40584
C          C       0.50000   0.73383   0.39708
C          C       0.64465   0.70068   0.27226
C          C       0.62664   0.67740   0.35585
C          C       0.49887   0.76112   0.40810
C          C       0.53839   0.77117   0.42370
C          C       0.57816   0.75303   0.43135
C          C       0.57787   0.72492   0.42785
C          C       0.65665   0.66232   0.41578
C          C       0.70362   0.67111   0.39392
C          C       0.72142   0.69485   0.31126
C          C       0.69156   0.70951   0.25031
C          C       0.35480   0.57409   0.45461
C          C       0.34186   0.54674   0.02590
C          C       0.29535   0.53689   0.05248
C          C       0.26066   0.55445   0.00957
C          C       0.27331   0.58207   0.44017
C          C       0.31995   0.59182   0.41313
C          C       0.47020   0.51683   0.42026
C          C       0.43852   0.53959   0.38945
C          C       0.40464   0.53487   0.34558
C          C       0.40054   0.50755   0.33853
C          C       0.43188   0.48484   0.37017
C          C       0.46723   0.48983   0.40997
C          C       0.21141   0.54438   0.03612
C          C       0.53865   0.79970   0.43664
C          C       0.11440   0.18133   0.45081
C          C       0.11591   0.15909   0.41273
C          C       0.15860   0.15342   0.35586
C          C       0.19989   0.16788   0.34448
C          C       0.19911   0.18883   0.38737
C          C       0.15574   0.19615   0.43830
N          N       0.24570   0.22374   0.40752
C          C       0.24431   0.20120   0.38243
C          C       0.32989   0.21998   0.41770
C          C       0.28818   0.23639   0.40812
C          C       0.28714   0.26548   0.40446
C          C       0.32642   0.27779   0.41327
C          C       0.36792   0.26127   0.42423
C          C       0.36938   0.23243   0.42446
N          N       0.44717   0.25655   0.45601
C          C       0.40966   0.27389   0.43472
N          N       0.41189   0.30302   0.41885
C          C       0.45107   0.31468   0.42461
N          N       0.48808   0.29684   0.44692
C          C       0.48639   0.26773   0.46293
C          C       0.53168   0.22118   0.46994
C          C       0.52852   0.24899   0.47880
C          C       0.56718   0.25935   0.49697
C          C       0.60875   0.24291   0.00160
C          C       0.61292   0.21608   0.48677
C          C       0.57327   0.20478   0.47448
C          C       0.49245   0.35805   0.42083
C          C       0.45402   0.34659   0.40514
C          C       0.41867   0.36596   0.37095
C          C       0.42056   0.39578   0.35720
C          C       0.45803   0.40680   0.37746
C          C       0.49435   0.38780   0.40684
C          C       0.67119   0.18098   0.44627
N          N       0.65841   0.20196   0.48032
C          C       0.75650   0.18209   0.46319
C          C       0.71959   0.16924   0.43920
C          C       0.80059   0.16870   0.46263
C          C       0.81119   0.14429   0.43354
C          C       0.77780   0.13455   0.39907
C          C       0.73210   0.14600   0.40568
N          N       0.45944   0.43634   0.37561
C          C       0.42634   0.45601   0.36341
C          C       0.82005   0.06036   0.45538
C          C       0.82118   0.07904   0.00569
C          C       0.78266   0.07944   0.08049
C          C       0.74266   0.06241   0.10155
C          C       0.74062   0.04476   0.04822
C          C       0.77989   0.04355   0.47587
N          N       0.69015   0.01511   0.00936
C          C       0.69665   0.02881   0.06716
C          C       0.60221   0.01384   0.05210
C          C       0.64619   0.00223   0.01875
C          C       0.64732   0.97826   0.48946
C          C       0.60544   0.96586   0.49347
C          C       0.56127   0.97757   0.02500
C          C       0.55998   0.00123   0.05695
N          N       0.47458   0.97671   0.04373
C          C       0.51740   0.96364   0.02893
N          N       0.52042   0.93851   0.00972
C          C       0.48164   0.92545   0.00904
N          N       0.43898   0.93860   0.02441
C          C       0.43518   0.96433   0.04114
C          C       0.38462   0.00663   0.06483
C          C       0.38905   0.97961   0.05032
C          C       0.34942   0.96799   0.03946
C          C       0.30685   0.98347   0.04004
C          C       0.30265   0.01056   0.05274
C          C       0.34187   0.02203   0.06582
C          C       0.44694   0.88267   0.49209
C          C       0.48645   0.89726   0.49147
C          C       0.53125   0.88440   0.47443
C          C       0.53650   0.85776   0.45933
C          C       0.49703   0.84315   0.45961
C          C       0.45230   0.85601   0.47591
C          C       0.24542   0.04924   0.06864
N          N       0.25918   0.02647   0.04478
C          C       0.17466   0.05555   0.49237
C          C       0.20064   0.06379   0.05036
C          C       0.13437   0.07115   0.47027
C          C       0.11804   0.09435   0.00301
C          C       0.14160   0.10140   0.06139
C          C       0.18264   0.08653   0.08398
N          N       0.50071   0.81563   0.44364
O          O       0.78730   0.72445   0.21834
C          C       0.77108   0.70375   0.28913
O          O       0.19995   0.51995   0.09238
C          C       0.86124   0.09940   0.47519
S          S       0.90942   0.15056   0.41154
C          C       0.07410   0.14026   0.43813
S          S       0.02387   0.09063   0.49361
C          C       0.07575   0.11098   0.47597
S          S       0.01868   0.15662   0.41483
C          C       0.85699   0.12876   0.44205
S          S       0.91850   0.08359   0.48583
C          C       0.94582   0.11884   0.44986
C          C       0.99095   0.12123   0.45258
C          C       0.44202   0.56832   0.40092
S          S       0.41381   0.62049   0.42359
C          C       0.53888   0.68525   0.39754
S          S       0.56828   0.63203   0.38060
C          C       0.57695   0.66826   0.38023
S          S       0.48175   0.67048   0.41136
C          C       0.40424   0.58446   0.42434
S          S       0.50025   0.58256   0.38146
C          C       0.47705   0.61583   0.40129
C          C       0.50535   0.63649   0.39892
H          H       0.46906   0.72754   0.38262
H          H       0.62245   0.71195   0.22420
H          H       0.46722   0.77439   0.40359
H          H       0.60888   0.76003   0.44520
H          H       0.60736   0.71106   0.44544
H          H       0.64338   0.64418   0.48037
H          H       0.72608   0.65947   0.44177
H          H       0.70443   0.72772   0.18560
H          H       0.36784   0.53288   0.06045
H          H       0.28655   0.51557   0.10670
H          H       0.24710   0.59604   0.40626
H          H       0.32907   0.61307   0.35830
H          H       0.49686   0.51967   0.45430
H          H       0.38140   0.55233   0.31604
H          H       0.37330   0.50433   0.30677
H          H       0.49171   0.47260   0.43573
H          H       0.18491   0.55872   0.00492
H          H       0.57118   0.80607   0.44535
H          H       0.08171   0.18622   0.49411
H          H       0.16034   0.13690   0.32358
H          H       0.23283   0.16212   0.30389
H          H       0.15406   0.21237   0.47178
H          H       0.27656   0.19134   0.35477
H          H       0.33178   0.19729   0.42300
H          H       0.25561   0.27860   0.39494
H          H       0.32413   0.30018   0.41162
H          H       0.40083   0.21911   0.43208
H          H       0.50248   0.21245   0.45653
H          H       0.56579   0.28047   0.00538
H          H       0.63859   0.25160   0.01307
H          H       0.57418   0.18362   0.46679
H          H       0.52071   0.34396   0.44598
H          H       0.38902   0.35804   0.35633
H          H       0.39213   0.40969   0.33265
H          H       0.52350   0.39597   0.42238
H          H       0.64726   0.17248   0.41896
H          H       0.74947   0.20142   0.48263
H          H       0.82621   0.17715   0.48647
H          H       0.78644   0.11726   0.36939
H          H       0.70636   0.13656   0.38462
H          H       0.39350   0.45149   0.35082
H          H       0.84939   0.05973   0.39751
H          H       0.78295   0.09370   0.12032
H          H       0.71281   0.06361   0.15795
H          H       0.77928   0.02992   0.43427
H          H       0.66891   0.02833   0.12776
H          H       0.60053   0.03181   0.07200
H          H       0.68086   0.96909   0.46370
H          H       0.60793   0.94712   0.47117
H          H       0.52658   0.01054   0.08217
H          H       0.41449   0.01624   0.07310
H          H       0.35146   0.94729   0.02800
H          H       0.27713   0.97451   0.02891
H          H       0.34034   0.04207   0.07325
H          H       0.41190   0.89197   0.00445
H          H       0.56267   0.89500   0.47223
H          H       0.57181   0.84904   0.44728
H          H       0.42143   0.84512   0.47681
H          H       0.26608   0.05779   0.10252
H          H       0.18702   0.03796   0.46534
H          H       0.11637   0.06547   0.42564
H          H       0.12844   0.11888   0.08857
H          H       0.20042   0.09295   0.12750
H          H       0.79380   0.69184   0.33607
C          C       0.60502   0.87534   0.70596
C          C       0.57621   0.89923   0.67117
C          C       0.72012   0.82131   0.68901
C          C       0.68839   0.84080   0.64270
C          C       0.57187   0.92273   0.70344
C          C       0.60049   0.92510   0.76074
C          C       0.63181   0.90205   0.79114
C          C       0.63303   0.87699   0.76632
C          C       0.70443   0.86848   0.57731
C          C       0.75120   0.87683   0.56078
C          C       0.78286   0.85748   0.60817
C          C       0.76700   0.82960   0.67215
C          C       0.40998   0.74796   0.70865
C          C       0.39229   0.72236   0.78418
C          C       0.34447   0.71529   0.80748
C          C       0.31339   0.73389   0.75616
C          C       0.33089   0.75976   0.68183
C          C       0.37875   0.76681   0.65853
C          C       0.52746   0.68775   0.66729
C          C       0.49213   0.70940   0.65088
C          C       0.45371   0.70313   0.62108
C          C       0.44780   0.67529   0.61975
C          C       0.48224   0.65356   0.63948
C          C       0.52288   0.66032   0.66063
C          C       0.26285   0.72677   0.77926
C          C       0.59883   0.95204   0.78503
C          C       0.17885   0.35542   0.62074
C          C       0.18105   0.33577   0.57223
C          C       0.22271   0.33431   0.50505
C          C       0.26244   0.35056   0.50784
C          C       0.26108   0.36897   0.54480
C          C       0.21846   0.37184   0.60735
N          N       0.30508   0.40161   0.58161
C          C       0.30510   0.38303   0.53879
C          C       0.38969   0.39826   0.58800
C          C       0.34676   0.41379   0.58775
C          C       0.34367   0.44085   0.60100
C          C       0.38281   0.45247   0.61306
C          C       0.42587   0.43703   0.61278
C          C       0.42874   0.40983   0.60006
N          N       0.50747   0.43242   0.63455
C          C       0.46731   0.44872   0.62794
N          N       0.46614   0.47597   0.63334
C          C       0.50443   0.48689   0.64548
N          N       0.54388   0.47011   0.65297
C          C       0.54567   0.44285   0.64795
C          C       0.59728   0.40077   0.62447
C          C       0.58981   0.42534   0.65337
C          C       0.62570   0.43368   0.68492
C          C       0.66839   0.41829   0.68534
C          C       0.67665   0.39458   0.65297
C          C       0.64037   0.38557   0.62380
C          C       0.54244   0.52740   0.66675
C          C       0.50425   0.51716   0.64652
C          C       0.46648   0.53633   0.62595
C          C       0.46687   0.56505   0.62511
C          C       0.50525   0.57520   0.64527
C          C       0.54282   0.55605   0.66594
C          C       0.74039   0.36368   0.60237
N          N       0.72187   0.38022   0.65216
C          C       0.81446   0.35407   0.67192
C          C       0.78745   0.35035   0.60749
C          C       0.85815   0.34027   0.67634
C          C       0.87655   0.32284   0.62059
C          C       0.85156   0.32009   0.55713
C          C       0.80760   0.33349   0.55100
N          N       0.50760   0.60424   0.64744
C          C       0.47537   0.62457   0.63455
C          C       0.88160   0.23943   0.63191
C          C       0.88229   0.25852   0.68108
C          C       0.84188   0.26098   0.74938
C          C       0.80038   0.24639   0.76297
C          C       0.79882   0.22847   0.71048
C          C       0.84016   0.22446   0.64645
N          N       0.75175   0.19467   0.68708
C          C       0.75348   0.21521   0.72101
C          C       0.66471   0.19379   0.70367
C          C       0.70955   0.18041   0.69337
C          C       0.71351   0.15262   0.68558
C          C       0.67394   0.13835   0.68678
C          C       0.62925   0.15169   0.69628
C          C       0.62495   0.17940   0.70576
N          N       0.54770   0.15201   0.67949
C          C       0.58732   0.13662   0.69714
N          N       0.58749   0.10713   0.71941
C          C       0.54853   0.09298   0.72389
N          N       0.50906   0.10882   0.70486
C          C       0.50849   0.13845   0.68254
C          C       0.46195   0.18481   0.66706
C          C       0.46517   0.15596   0.66665
C          C       0.42631   0.14413   0.65385
C          C       0.38500   0.16065   0.64335
C          C       0.38129   0.18900   0.64748
C          C       0.42076   0.20121   0.65695
C          C       0.51152   0.04541   0.74698
C          C       0.54968   0.06059   0.74905
C          C       0.58980   0.04450   0.77370
C          C       0.59299   0.01444   0.78997
C          C       0.55620   0.00031   0.78083
C          C       0.51483   0.01529   0.76312
C          C       0.32459   0.22732   0.66750
N          N       0.33690   0.20426   0.64387
C          C       0.24248   0.22879   0.63252
C          C       0.27796   0.24104   0.66176
C          C       0.20044   0.24399   0.62067
C          C       0.18998   0.26971   0.64290
C          C       0.22155   0.27901   0.68252
C          C       0.26568   0.26582   0.68739
N          N       0.56108   0.02956   0.77729
O          O       0.85987   0.85080   0.63262
C          C       0.83206   0.86667   0.58980
O          O       0.24684   0.70421   0.84227
C          C       0.92419   0.27715   0.65707
S          S       0.02883   0.32634   0.60866
C          C       0.14104   0.31551   0.59762
S          S       0.09279   0.26479   0.65138
C          C       0.14515   0.28600   0.62755
S          S       0.08324   0.33158   0.59029
C          C       0.92141   0.30655   0.63138
S          S       0.01907   0.25970   0.66421
C          C       0.00892   0.29448   0.63181
C          C       0.05536   0.29665   0.62521
C          C       0.49696   0.73831   0.66196
S          S       0.47267   0.79082   0.68709
C          C       0.60173   0.84819   0.68502
S          S       0.62830   0.79832   0.64545
C          C       0.63893   0.83189   0.66138
S          S       0.54331   0.83627   0.69471
C          C       0.46051   0.75578   0.68313
S          S       0.55595   0.75092   0.64723
C          C       0.53543   0.78467   0.66580
C          C       0.56514   0.80401   0.66696
H          H       0.55657   0.89953   0.61956
H          H       0.70846   0.79981   0.73930
H          H       0.54688   0.93959   0.68173
H          H       0.65420   0.90313   0.83622
H          H       0.65505   0.85874   0.79581
H          H       0.68069   0.88364   0.53908
H          H       0.76264   0.89844   0.51116
H          H       0.79069   0.81423   0.70967
H          H       0.41554   0.70773   0.82425
H          H       0.33185   0.69527   0.86549
H          H       0.30752   0.77443   0.64149
H          H       0.39165   0.78672   0.60033
H          H       0.55849   0.69159   0.68712
H          H       0.42813   0.71969   0.59740
H          H       0.41674   0.67105   0.60022
H          H       0.55075   0.64428   0.67401
H          H       0.23933   0.74160   0.73964
H          H       0.62946   0.95765   0.80267
H          H       0.14711   0.35699   0.67266
H          H       0.22496   0.31956   0.53397
H          H       0.29475   0.34811   0.55698
H          H       0.21626   0.38588   0.64870
H          H       0.33786   0.37684   0.99960
H          H       0.39299   0.37691   0.58093
H          H       0.31076   0.45304   0.60204
H          H       0.37915   0.47343   0.62322
H          H       0.46106   0.39710   0.60057
H          H       0.57022   0.39358   0.60058
H          H       0.62099   0.45228   0.70858
H          H       0.69574   0.42534   0.70878
H          H       0.64482   0.36682   0.60103
H          H       0.57213   0.51326   0.68364
H          H       0.43649   0.52912   0.61077
H          H       0.43671   0.57869   0.60957
H          H       0.57248   0.56336   0.68217
H          H       0.72228   0.36021   0.55407
H          H       0.80061   0.36711   0.71631
H          H       0.87734   0.34255   0.72498
H          H       0.86604   0.30699   0.51309
H          H       0.78913   0.33048   0.50240
H          H       0.44295   0.62092   0.61872
H          H       0.91246   0.23707   0.57945
H          H       0.84203   0.27497   0.78989
H          H       0.76918   0.24946   0.81372
H          H       0.84008   0.21056   0.60538
H          H       0.72173   0.22225   0.76103
H          H       0.66021   0.21548   0.70812
H          H       0.74766   0.14202   0.67723
H          H       0.67855   0.11708   0.67856
H          H       0.59095   0.19021   0.71351
H          H       0.49114   0.19469   0.67655
H          H       0.42770   0.12209   0.65257
H          H       0.35519   0.15116   0.63452
H          H       0.42022   0.22328   0.65739
H          H       0.47986   0.05698   0.72934
H          H       0.61951   0.05520   0.77853
H          H       0.62435   0.00335   0.80945
H          H       0.48589   0.00430   0.75670
H          H       0.34768   0.23650   0.69490
H          H       0.24904   0.20833   0.61944
H          H       0.17610   0.23559   0.59366
H          H       0.21261   0.29709   0.70841
H          H       0.29008   0.27490   0.71238
H          H       0.84384   0.88789   0.53829
C          C       0.53973   0.71510   0.90584
C          C       0.50000   0.73383   0.89708
C          C       0.64465   0.70068   0.77226
C          C       0.62664   0.67740   0.85586
C          C       0.49887   0.76112   0.90810
C          C       0.53839   0.77117   0.92370
C          C       0.57816   0.75303   0.93136
C          C       0.57787   0.72492   0.92785
C          C       0.65665   0.66232   0.91578
C          C       0.70362   0.67111   0.89392
C          C       0.72142   0.69485   0.81126
C          C       0.69156   0.70951   0.75031
C          C       0.35480   0.57409   0.95461
C          C       0.34186   0.54674   0.52590
C          C       0.29535   0.53689   0.55248
C          C       0.26066   0.55445   0.50957
C          C       0.27331   0.58207   0.94017
C          C       0.31995   0.59182   0.91313
C          C       0.47020   0.51683   0.92026
C          C       0.43852   0.53959   0.88945
C          C       0.40464   0.53487   0.84559
C          C       0.40054   0.50755   0.83853
C          C       0.43188   0.48484   0.87017
C          C       0.46723   0.48983   0.90997
C          C       0.21141   0.54438   0.53612
C          C       0.53865   0.79970   0.93664
C          C       0.11440   0.18133   0.95080
C          C       0.11591   0.15909   0.91273
C          C       0.15860   0.15342   0.85586
C          C       0.19989   0.16788   0.84448
C          C       0.19911   0.18883   0.88738
C          C       0.15574   0.19615   0.93830
N          N       0.24570   0.22374   0.90752
C          C       0.24431   0.20120   0.88243
C          C       0.32989   0.21998   0.91770
C          C       0.28818   0.23639   0.90812
C          C       0.28714   0.26548   0.90445
C          C       0.32642   0.27779   0.91327
C          C       0.36792   0.26127   0.92423
C          C       0.36938   0.23243   0.92446
N          N       0.44717   0.25655   0.95601
C          C       0.40966   0.27389   0.93472
N          N       0.41189   0.30302   0.91885
C          C       0.45107   0.31468   0.92461
N          N       0.48808   0.29684   0.94692
C          C       0.48639   0.26773   0.96293
C          C       0.53168   0.22118   0.96994
C          C       0.52852   0.24899   0.97880
C          C       0.56718   0.25935   0.99697
C          C       0.60875   0.24291   0.50160
C          C       0.61292   0.21608   0.98677
C          C       0.57327   0.20478   0.97448
C          C       0.49245   0.35805   0.92083
C          C       0.45402   0.34659   0.90514
C          C       0.41867   0.36596   0.87094
C          C       0.42056   0.39578   0.85720
C          C       0.45803   0.40680   0.87746
C          C       0.49435   0.38780   0.90683
C          C       0.67119   0.18098   0.94627
N          N       0.65841   0.20196   0.98032
C          C       0.75650   0.18209   0.96319
C          C       0.71959   0.16924   0.93920
C          C       0.80059   0.16870   0.96263
C          C       0.81119   0.14429   0.93354
C          C       0.77780   0.13455   0.89907
C          C       0.73210   0.14600   0.90568
N          N       0.45944   0.43634   0.87562
C          C       0.42634   0.45601   0.86342
C          C       0.82005   0.06036   0.95538
C          C       0.82118   0.07904   0.50569
C          C       0.78266   0.07944   0.58049
C          C       0.74266   0.06241   0.60155
C          C       0.74062   0.04476   0.54822
C          C       0.77989   0.04355   0.97587
N          N       0.69015   0.01511   0.50936
C          C       0.69665   0.02881   0.56716
C          C       0.60221   0.01384   0.55210
C          C       0.64619   0.00223   0.51875
C          C       0.64732   0.97826   0.98946
C          C       0.60544   0.96586   0.99347
C          C       0.56127   0.97757   0.52500
C          C       0.55998   0.00123   0.55695
N          N       0.47458   0.97671   0.54373
C          C       0.51740   0.96364   0.52893
N          N       0.52042   0.93851   0.50972
C          C       0.48164   0.92545   0.50904
N          N       0.43898   0.93860   0.52441
C          C       0.43518   0.96433   0.54114
C          C       0.38462   0.00663   0.56483
C          C       0.38905   0.97961   0.55032
C          C       0.34942   0.96799   0.53946
C          C       0.30685   0.98347   0.54004
C          C       0.30265   0.01056   0.55274
C          C       0.34187   0.02203   0.56582
C          C       0.44694   0.88267   0.99209
C          C       0.48645   0.89726   0.99147
C          C       0.53125   0.88440   0.97443
C          C       0.53650   0.85776   0.95933
C          C       0.49703   0.84315   0.95961
C          C       0.45230   0.85601   0.97591
C          C       0.24542   0.04924   0.56864
N          N       0.25918   0.02647   0.54478
C          C       0.17466   0.05555   0.99237
C          C       0.20064   0.06379   0.55036
C          C       0.13437   0.07115   0.97027
C          C       0.11804   0.09435   0.50301
C          C       0.14160   0.10140   0.56139
C          C       0.18264   0.08653   0.58398
N          N       0.50071   0.81563   0.94364
O          O       0.78730   0.72445   0.71834
C          C       0.77108   0.70375   0.78913
O          O       0.19995   0.51995   0.59238
C          C       0.86124   0.09940   0.97519
S          S       0.90942   0.15056   0.91154
C          C       0.07410   0.14026   0.93814
S          S       0.02387   0.09063   0.99361
C          C       0.07575   0.11098   0.97597
S          S       0.01868   0.15662   0.91483
C          C       0.85699   0.12876   0.94205
S          S       0.91850   0.08359   0.98583
C          C       0.94582   0.11884   0.94986
C          C       0.99095   0.12123   0.95258
C          C       0.44202   0.56832   0.90092
S          S       0.41381   0.62049   0.92359
C          C       0.53888   0.68525   0.89754
S          S       0.56828   0.63203   0.88060
C          C       0.57695   0.66826   0.88023
S          S       0.48175   0.67048   0.91136
C          C       0.40424   0.58446   0.92434
S          S       0.50025   0.58256   0.88146
C          C       0.47705   0.61583   0.90129
C          C       0.50535   0.63649   0.89892
H          H       0.46906   0.72754   0.88262
H          H       0.62245   0.71195   0.72419
H          H       0.46722   0.77439   0.90359
H          H       0.60888   0.76003   0.94520
H          H       0.60736   0.71106   0.94544
H          H       0.64338   0.64418   0.98037
H          H       0.72608   0.65947   0.94176
H          H       0.70443   0.72772   0.68559
H          H       0.36784   0.53288   0.56045
H          H       0.28655   0.51557   0.60670
H          H       0.24710   0.59604   0.90626
H          H       0.32907   0.61307   0.85830
H          H       0.49686   0.51967   0.95430
H          H       0.38140   0.55233   0.81603
H          H       0.37330   0.50433   0.80677
H          H       0.49171   0.47260   0.93573
H          H       0.18491   0.55872   0.50492
H          H       0.57118   0.80607   0.94535
H          H       0.08171   0.18622   0.99411
H          H       0.16034   0.13690   0.82357
H          H       0.23283   0.16212   0.80389
H          H       0.15406   0.21237   0.97178
H          H       0.27656   0.19134   0.85477
H          H       0.33178   0.19729   0.92300
H          H       0.25561   0.27860   0.89494
H          H       0.32413   0.30018   0.91162
H          H       0.40083   0.21911   0.93208
H          H       0.50248   0.21245   0.95653
H          H       0.56579   0.28047   0.50538
H          H       0.63859   0.25160   0.51307
H          H       0.57418   0.18362   0.96679
H          H       0.52071   0.34396   0.94597
H          H       0.38902   0.35804   0.85633
H          H       0.39213   0.40969   0.83264
H          H       0.52350   0.39597   0.92238
H          H       0.64726   0.17248   0.91896
H          H       0.74947   0.20142   0.98263
H          H       0.82621   0.17715   0.98647
H          H       0.78644   0.11726   0.86939
H          H       0.70636   0.13656   0.88462
H          H       0.39350   0.45149   0.85082
H          H       0.84939   0.05973   0.89751
H          H       0.78295   0.09370   0.62032
H          H       0.71281   0.06361   0.65795
H          H       0.77928   0.02992   0.93426
H          H       0.66891   0.02833   0.62776
H          H       0.60053   0.03181   0.57200
H          H       0.68086   0.96909   0.96370
H          H       0.60793   0.94712   0.97117
H          H       0.52658   0.01054   0.58217
H          H       0.41449   0.01624   0.57310
H          H       0.35146   0.94729   0.52800
H          H       0.27713   0.97451   0.52891
H          H       0.34034   0.04207   0.57325
H          H       0.41190   0.89197   0.50445
H          H       0.56267   0.89500   0.97223
H          H       0.57181   0.84904   0.94728
H          H       0.42143   0.84512   0.97681
H          H       0.26608   0.05779   0.60252
H          H       0.18702   0.03796   0.96534
H          H       0.11637   0.06547   0.92565
H          H       0.12844   0.11888   0.58857
H          H       0.20042   0.09295   0.62750
H          H       0.79380   0.69184   0.83607
