data_crystal

_cell_length_a    51.37000
_cell_length_b    51.45000
_cell_length_c    16.10000
_cell_angle_alpha 89.88000
_cell_angle_beta  90.02000
_cell_angle_gamma 120.02000

_space_group_name_Hall 'P 1'
_space_group_name_H-M_alt 'P 1'

loop_
_symmetry_equiv_pos_as_xyz
 'x,y,z'

loop_
_atom_site_label
_atom_site_type_symbol
_atom_site_fract_x
_atom_site_fract_y
_atom_site_fract_z
C          C       0.25455   0.53930   0.45508
C          C       0.27002   0.54996   0.37972
C          C       0.29061   0.58050   0.36857
C          C       0.29611   0.60082   0.43313
C          C       0.28045   0.59043   0.00822
C          C       0.25995   0.55993   0.01954
C          C       0.02169   0.03405   0.45212
C          C       0.31836   0.63300   0.42309
C          C       0.14049   0.31782   0.07656
C          C       0.15669   0.34921   0.06962
C          C       0.14325   0.36495   0.03642
C          C       0.11292   0.34817   0.01143
C          C       0.09680   0.31733   0.01995
C          C       0.11027   0.30122   0.05130
C          C       0.09559   0.26826   0.05230
C          C       0.09190   0.25264   0.47798
C          C       0.08009   0.22158   0.47905
C          C       0.07239   0.20578   0.05482
C          C       0.07652   0.22159   0.12918
C          C       0.08829   0.25265   0.12798
C          C       0.16120   0.39786   0.03198
C          C       0.06098   0.17315   0.05772
C          C       0.17854   0.41194   0.46136
C          C       0.19660   0.44319   0.45866
C          C       0.19775   0.46070   0.02712
C          C       0.18051   0.44640   0.09796
C          C       0.16248   0.41517   0.10056
N          N       0.09478   0.35777   0.47909
C          C       0.06774   0.33230   0.47024
N          N       0.06816   0.30739   0.49488
C          C       0.21703   0.49369   0.02664
C          C       0.04129   0.27764   0.00154
C          C       0.10281   0.38879   0.45846
N          N       0.23421   0.50753   0.46342
N          N       0.05722   0.15811   0.48969
C          C       0.04727   0.12664   0.48256
C          C       0.03681   0.10674   0.05072
C          C       0.02858   0.07666   0.04002
C          C       0.03117   0.06607   0.46224
C          C       0.03985   0.08537   0.39358
C          C       0.04809   0.11548   0.40388
Au         Au      0.03024   0.33069   0.43010
C          C       0.07707   0.39146   0.42014
C          C       0.02997   0.27119   0.09095
C          C       0.04222   0.02337   0.44427
C          C       0.34977   0.64386   0.42373
C          C       0.53584   0.28801   0.10523
C          C       0.54792   0.27484   0.05363
C          C       0.57880   0.28521   0.05362
C          C       0.59825   0.30933   0.10462
C          C       0.58624   0.32324   0.15422
C          C       0.55536   0.31278   0.15446
C          C       0.02312   0.00978   0.21272
C          C       0.63085   0.31956   0.10741
C          C       0.31575   0.16326   0.17001
C          C       0.34588   0.18328   0.14973
C          C       0.35900   0.21422   0.16572
C          C       0.34029   0.22427   0.20001
C          C       0.31151   0.20429   0.22704
C          C       0.29796   0.17328   0.20973
C          C       0.26580   0.15150   0.22238
C          C       0.24372   0.15577   0.18368
C          C       0.21328   0.13464   0.19400
C          C       0.20456   0.10856   0.24136
C          C       0.22671   0.10406   0.27840
C          C       0.25710   0.12541   0.26923
C          C       0.39212   0.23281   0.16231
C          C       0.17270   0.08540   0.25064
C          C       0.40794   0.23355   0.09045
C          C       0.43938   0.24889   0.09041
C          C       0.45545   0.26364   0.16246
C          C       0.43957   0.26321   0.23379
C          C       0.40820   0.24767   0.23403
N          N       0.34635   0.25261   0.21651
C          C       0.32205   0.24896   0.25895
N          N       0.30060   0.21983   0.26837
C          C       0.48854   0.27862   0.16591
C          C       0.27401   0.20947   0.32173
C          C       0.37105   0.28164   0.18779
N          N       0.50378   0.27553   0.10616
N          N       0.15150   0.09116   0.23181
C          C       0.11967   0.07041   0.23431
C          C       0.10029   0.08154   0.21981
C          C       0.06937   0.06212   0.21085
C          C       0.05660   0.03076   0.21996
C          C       0.07653   0.01984   0.23511
C          C       0.10751   0.03922   0.24113
Au         Au      0.31835   0.28303   0.30367
Cl         Cl      0.31415   0.32166   0.35462
C          C       0.35930   0.29739   0.13137
C          C       0.28315   0.21987   0.41124
C          C       0.00257   0.02020   0.21952
C          C       0.64062   0.29855   0.11109
Cl         Cl      0.10791   0.33166   0.27105
C          C       0.99071   0.01385   0.45276
C          C       0.69937   0.24255   0.14086
C          C       0.68858   0.24650   0.06466
C          C       0.67871   0.26725   0.05679
C          C       0.68000   0.28470   0.12501
C          C       0.69058   0.28076   0.20155
C          C       0.70034   0.25996   0.20955
C          C       0.97172   0.00159   0.20325
C          C       0.67129   0.30786   0.11621
C          C       0.82029   0.14064   0.19648
C          C       0.80297   0.15468   0.19002
C          C       0.77168   0.13844   0.20242
C          C       0.75829   0.10742   0.21910
C          C       0.77534   0.09355   0.22581
C          C       0.80689   0.10992   0.21581
C          C       0.82658   0.09709   0.22692
C          C       0.84060   0.09280   0.15790
C          C       0.85983   0.08119   0.16826
C          C       0.86550   0.07396   0.24807
C          C       0.85170   0.07868   0.31710
C          C       0.83251   0.09037   0.30664
C          C       0.75534   0.15513   0.20353
C          C       0.88559   0.06148   0.26043
C          C       0.75139   0.16733   0.12993
C          C       0.73775   0.18497   0.13176
C          C       0.72839   0.19113   0.20767
C          C       0.73277   0.17919   0.28137
C          C       0.74638   0.16152   0.27940
N          N       0.72884   0.08638   0.22801
C          C       0.72877   0.06039   0.24044
N          N       0.75661   0.06377   0.23944
C          C       0.71501   0.21066   0.21174
C          C       0.76219   0.03850   0.24170
C          C       0.70164   0.08817   0.21338
N          N       0.71065   0.22204   0.14461
N          N       0.89799   0.05621   0.19727
C          C       0.91755   0.04378   0.20045
C          C       0.92250   0.03236   0.12712
C          C       0.94043   0.01906   0.12744
C          C       0.95314   0.01623   0.20156
C          C       0.95034   0.03000   0.27336
C          C       0.93241   0.04335   0.27348
Au         Au      0.69135   0.02064   0.24910
C          C       0.69605   0.08869   0.12051
C          C       0.75969   0.02702   0.33034
C          C       0.69296   0.33887   0.11553
C          C       0.46483   0.70988   0.43910
C          C       0.44972   0.69664   0.36502
C          C       0.41886   0.68576   0.35776
C          C       0.40271   0.68818   0.42446
C          C       0.41783   0.70215   0.49793
C          C       0.44866   0.71296   0.00539
C          C       0.97866   0.98290   0.43966
C          C       0.36980   0.67529   0.41909
C          C       0.68639   0.83468   0.47878
C          C       0.65523   0.81552   0.47279
C          C       0.64162   0.78575   0.00161
C          C       0.66047   0.77580   0.03556
C          C       0.69105   0.79499   0.04457
C          C       0.70494   0.82485   0.01477
C          C       0.73758   0.84560   0.01320
C          C       0.75600   0.84045   0.45936
C          C       0.78685   0.86090   0.45559
C          C       0.79947   0.88712   0.00407
H          H       0.84384   0.88789   0.03830
C          C       0.53973   0.71510   0.40584
C          C       0.50000   0.73383   0.39708
C          C       0.64465   0.70068   0.27226
C          C       0.62664   0.67740   0.35585
C          C       0.78086   0.89245   0.05654
C          C       0.75012   0.87179   0.06125
C          C       0.60853   0.76808   0.00352
C          C       0.83170   0.90947   0.49920
C          C       0.59207   0.75932   0.42933
C          C       0.56069   0.74533   0.43105
C          C       0.54539   0.74016   0.00716
C          C       0.56198   0.74879   0.08126
C          C       0.59332   0.76293   0.07940
N          N       0.65330   0.74813   0.06360
C          C       0.67966   0.75158   0.09249
N          N       0.70298   0.77990   0.08354
C          C       0.51245   0.72699   0.01073
C          C       0.73300   0.79008   0.11811
C          C       0.62401   0.72027   0.05779
N          N       0.49664   0.72105   0.44316
N          N       0.85079   0.90225   0.47013
C          C       0.88242   0.92262   0.46055
C          C       0.90193   0.91115   0.45982
C          C       0.93290   0.93033   0.45187
C          C       0.94517   0.96159   0.44021
C          C       0.92475   0.97233   0.43429
C          C       0.89409   0.95342   0.44727
Au         Au      0.68474   0.71911   0.14377
Cl         Cl      0.69047   0.68226   0.20184
C          C       0.62568   0.69192   0.07443
C          C       0.73192   0.78911   0.21288
C          C       0.35854   0.69508   0.41653
Cl         Cl      0.76597   0.09712   0.47023
C          C       0.95996   0.97041   0.18785
Cl         Cl      0.26509   0.03482   0.43432
C          C       0.29163   0.74371   0.44298
C          C       0.27862   0.71958   0.38745
C          C       0.29046   0.70049   0.37821
C          C       0.31590   0.70549   0.42375
C          C       0.32955   0.73030   0.47740
C          C       0.31764   0.74929   0.48685
C          C       0.03015   0.99181   0.43851
C          C       0.32754   0.68434   0.41824
C          C       0.17759   0.85073   0.08011
C          C       0.19367   0.83537   0.07363
C          C       0.22173   0.84854   0.03340
C          C       0.23338   0.87785   0.00139
C          C       0.21782   0.89316   0.00921
C          C       0.18920   0.87980   0.04709
C          C       0.16994   0.89344   0.04761
C          C       0.15575   0.89451   0.47431
C          C       0.13722   0.90717   0.47458
C          C       0.13211   0.91836   0.04872
C          C       0.14550   0.91623   0.12252
C          C       0.16407   0.90361   0.12212
C          C       0.23742   0.83128   0.02754
C          C       0.11319   0.93246   0.05032
C          C       0.23329   0.81333   0.45790
C          C       0.24780   0.79654   0.45292
C          C       0.26637   0.79725   0.01816
C          C       0.27008   0.81496   0.08828
C          C       0.25557   0.83175   0.09315
N          N       0.25997   0.89574   0.46255
C          C       0.25998   0.92181   0.44882
N          N       0.23480   0.92104   0.47676
C          C       0.28182   0.77959   0.01486
C          C       0.23090   0.94734   0.47958
C          C       0.28354   0.88854   0.44163
N          N       0.27796   0.76202   0.45243
N          N       0.10083   0.93506   0.48270
C          C       0.08272   0.94902   0.47457
C          C       0.08033   0.96663   0.03776
C          C       0.06322   0.98047   0.02505
C          C       0.04890   0.97771   0.44900
C          C       0.05023   0.95926   0.38725
C          C       0.06743   0.94544   0.39956
Au         Au      0.29374   0.95869   0.39809
C          C       0.31077   0.91409   0.39833
C          C       0.23817   0.96137   0.06591
C          C       0.30767   0.65329   0.42034
Cl         Cl      0.97543   0.75931   0.47060
C          C       0.01126   0.97900   0.19833
C          C       0.99908   0.97247   0.43121
C          C       0.74622   0.45400   0.13980
C          C       0.73138   0.44250   0.06416
C          C       0.71052   0.41192   0.05581
C          C       0.70427   0.39247   0.12332
C          C       0.71825   0.40400   0.19984
C          C       0.73909   0.43450   0.20830
C          C       0.98036   0.95937   0.18986
C          C       0.68297   0.36001   0.11483
C          C       0.86534   0.67393   0.26270
C          C       0.84929   0.64257   0.25483
C          C       0.86184   0.62741   0.21337
C          C       0.89123   0.64471   0.18138
C          C       0.90733   0.67547   0.19124
C          C       0.89458   0.69105   0.23020
C          C       0.90891   0.72399   0.23283
C          C       0.91194   0.74028   0.15993
C          C       0.92330   0.77127   0.16342
C          C       0.93112   0.78623   0.24024
C          C       0.92770   0.76976   0.31303
C          C       0.91647   0.73885   0.30943
C          C       0.84404   0.59453   0.20788
C          C       0.94168   0.81858   0.24685
C          C       0.82402   0.58092   0.14178
C          C       0.80574   0.54972   0.13911
C          C       0.80710   0.53176   0.20308
C          C       0.82720   0.54555   0.26917
C          C       0.84542   0.57676   0.27185
N          N       0.90855   0.63568   0.14120
C          C       0.93520   0.66139   0.12945
N          N       0.93530   0.68591   0.15986
C          C       0.78736   0.49885   0.20311
C          C       0.96244   0.71540   0.16795
C          C       0.90023   0.60490   0.11705
N          N       0.76741   0.48561   0.14510
N          N       0.94530   0.83491   0.18143
C          C       0.95369   0.86604   0.18404
C          C       0.96893   0.88455   0.11615
C          C       0.97759   0.91502   0.11729
C          C       0.97021   0.92704   0.18541
C          C       0.95465   0.90853   0.25263
C          C       0.94622   0.87823   0.25201
Au         Au      0.97171   0.66374   0.07862
C          C       0.92484   0.60289   0.06951
C          C       0.97457   0.72021   0.25646
C          C       0.65221   0.35024   0.10988
C          C       0.36226   0.62288   0.43723
N          N       0.37878   0.63027   0.01666
C          C       0.35809   0.61675   0.08758
C          C       0.37588   0.62687   0.16863
N          N       0.39901   0.61806   0.17022
C          C       0.41954   0.63106   0.09895
C          C       0.40163   0.62096   0.01718
C          C       0.44327   0.62138   0.10121
H          H       0.43143   0.65605   0.10239
C          C       0.72643   0.34966   0.10960
N          N       0.73824   0.36437   0.02840
C          C       0.77123   0.38356   0.03180
C          C       0.78377   0.39922   0.44768
N          N       0.77408   0.37695   0.38017
C          C       0.74135   0.35697   0.37816
C          C       0.72983   0.34166   0.46232
C          C       0.77571   0.42379   0.43018
C          C       0.92873   0.95057   0.15042
N          N       0.90338   0.93668   0.21120
C          C       0.88549   0.90392   0.19490
C          C       0.85726   0.88841   0.24966
N          N       0.83797   0.90142   0.23469
C          C       0.85453   0.93369   0.25164
C          C       0.88377   0.95004   0.20092
C          C       0.83959   0.85460   0.23287
C          C       0.07567   0.04479   0.42822
N          N       0.09273   0.06051   0.00411
C          C       0.11843   0.05555   0.01878
C          C       0.14449   0.07276   0.45626
N          N       0.14726   0.10156   0.42974
C          C       0.13643   0.11402   0.49360
C          C       0.10245   0.09315   0.00534
C          C       0.17419   0.07722   0.49211
C          C       0.25455   0.53930   0.95508
C          C       0.27002   0.54996   0.87972
C          C       0.29061   0.58050   0.86857
C          C       0.29611   0.60082   0.93313
C          C       0.28045   0.59043   0.50821
C          C       0.25995   0.55993   0.51955
C          C       0.02169   0.03405   0.95212
C          C       0.31836   0.63300   0.92309
C          C       0.14049   0.31782   0.57656
C          C       0.15669   0.34921   0.56962
C          C       0.14325   0.36495   0.53642
C          C       0.11292   0.34817   0.51143
C          C       0.09680   0.31733   0.51995
C          C       0.11027   0.30122   0.55130
C          C       0.09559   0.26826   0.55230
C          C       0.09190   0.25264   0.97798
C          C       0.08009   0.22158   0.97905
C          C       0.07239   0.20578   0.55482
C          C       0.07652   0.22159   0.62918
C          C       0.08829   0.25265   0.62799
C          C       0.16120   0.39786   0.53198
C          C       0.06098   0.17315   0.55772
C          C       0.17854   0.41194   0.96136
C          C       0.19660   0.44319   0.95866
C          C       0.19775   0.46070   0.52712
C          C       0.18051   0.44640   0.59796
C          C       0.16248   0.41517   0.60055
N          N       0.09478   0.35777   0.97910
C          C       0.06774   0.33230   0.97024
N          N       0.06816   0.30739   0.99487
C          C       0.21703   0.49369   0.52664
C          C       0.04129   0.27764   0.50155
C          C       0.10281   0.38879   0.95846
N          N       0.23421   0.50753   0.96342
N          N       0.05722   0.15811   0.98969
C          C       0.04727   0.12664   0.98255
C          C       0.03681   0.10674   0.55072
C          C       0.02858   0.07666   0.54002
C          C       0.03117   0.06607   0.96224
C          C       0.03985   0.08537   0.89358
C          C       0.04809   0.11548   0.90389
Au         Au      0.03024   0.33069   0.93010
C          C       0.07707   0.39146   0.92014
C          C       0.02997   0.27119   0.59096
C          C       0.04222   0.02337   0.94427
C          C       0.34977   0.64386   0.92372
C          C       0.53584   0.28801   0.60523
C          C       0.54792   0.27484   0.55363
C          C       0.57880   0.28521   0.55361
C          C       0.59825   0.30933   0.60462
C          C       0.58624   0.32324   0.65422
C          C       0.55536   0.31278   0.65446
C          C       0.02312   0.00978   0.71272
C          C       0.63085   0.31956   0.60741
C          C       0.31575   0.16326   0.67001
C          C       0.34588   0.18328   0.64973
C          C       0.35900   0.21422   0.66571
C          C       0.34029   0.22427   0.70001
C          C       0.31151   0.20429   0.72704
C          C       0.29796   0.17328   0.70973
C          C       0.26580   0.15150   0.72238
C          C       0.24372   0.15577   0.68369
C          C       0.21328   0.13464   0.69400
C          C       0.20456   0.10856   0.74136
C          C       0.22671   0.10406   0.77839
C          C       0.25710   0.12541   0.76923
C          C       0.39212   0.23281   0.66231
C          C       0.17270   0.08540   0.75064
C          C       0.40794   0.23355   0.59045
C          C       0.43938   0.24889   0.59041
C          C       0.45545   0.26364   0.66246
C          C       0.43957   0.26321   0.73379
C          C       0.40820   0.24767   0.73403
N          N       0.34635   0.25261   0.71650
C          C       0.32205   0.24896   0.75895
N          N       0.30060   0.21983   0.76837
C          C       0.48854   0.27862   0.66591
C          C       0.27401   0.20947   0.82173
C          C       0.37105   0.28164   0.68779
N          N       0.50378   0.27553   0.60617
N          N       0.15150   0.09116   0.73181
C          C       0.11967   0.07041   0.73431
C          C       0.10029   0.08154   0.71981
C          C       0.06937   0.06212   0.71085
C          C       0.05660   0.03076   0.71997
C          C       0.07653   0.01984   0.73511
C          C       0.10751   0.03922   0.74113
Au         Au      0.31835   0.28303   0.80367
Cl         Cl      0.31415   0.32166   0.85462
C          C       0.35930   0.29739   0.63137
C          C       0.28315   0.21987   0.91124
C          C       0.00257   0.02020   0.71952
C          C       0.64062   0.29855   0.61109
Cl         Cl      0.10791   0.33166   0.77105
C          C       0.99071   0.01385   0.95276
C          C       0.69937   0.24255   0.64087
C          C       0.68858   0.24650   0.56466
C          C       0.67871   0.26725   0.55679
C          C       0.68000   0.28470   0.62501
C          C       0.69058   0.28076   0.70155
C          C       0.70034   0.25996   0.70955
C          C       0.97172   0.00159   0.70325
C          C       0.67129   0.30786   0.61621
C          C       0.82029   0.14064   0.69648
C          C       0.80297   0.15468   0.69002
C          C       0.77168   0.13844   0.70243
C          C       0.75829   0.10742   0.71910
C          C       0.77534   0.09355   0.72581
C          C       0.80689   0.10992   0.71581
C          C       0.82658   0.09709   0.72692
C          C       0.84060   0.09280   0.65790
C          C       0.85983   0.08119   0.66826
C          C       0.86550   0.07396   0.74806
C          C       0.85170   0.07868   0.81710
C          C       0.83251   0.09037   0.80664
C          C       0.75534   0.15513   0.70353
C          C       0.88559   0.06148   0.76043
C          C       0.75139   0.16733   0.62992
C          C       0.73775   0.18497   0.63177
C          C       0.72839   0.19113   0.70767
C          C       0.73277   0.17919   0.78137
C          C       0.74638   0.16152   0.77940
N          N       0.72884   0.08638   0.72801
C          C       0.72877   0.06039   0.74044
N          N       0.75661   0.06377   0.73944
C          C       0.71501   0.21066   0.71174
C          C       0.76219   0.03850   0.74170
C          C       0.70164   0.08817   0.71339
N          N       0.71065   0.22204   0.64460
N          N       0.89799   0.05621   0.69727
C          C       0.91755   0.04378   0.70045
C          C       0.92250   0.03236   0.62712
C          C       0.94043   0.01906   0.62744
C          C       0.95314   0.01623   0.70156
C          C       0.95034   0.03000   0.77336
C          C       0.93241   0.04335   0.77348
Au         Au      0.69135   0.02064   0.74911
C          C       0.69605   0.08869   0.62050
C          C       0.75969   0.02702   0.83034
C          C       0.69296   0.33887   0.61552
C          C       0.46483   0.70988   0.93910
C          C       0.44972   0.69664   0.86503
C          C       0.41886   0.68576   0.85776
C          C       0.40271   0.68818   0.92447
C          C       0.41783   0.70215   0.99793
C          C       0.44866   0.71296   0.50538
C          C       0.97866   0.98290   0.93966
C          C       0.36980   0.67529   0.91909
C          C       0.68639   0.83468   0.97878
C          C       0.65523   0.81552   0.97279
C          C       0.64162   0.78575   0.50160
C          C       0.66047   0.77580   0.53556
C          C       0.69105   0.79499   0.54457
C          C       0.70494   0.82485   0.51477
C          C       0.73758   0.84560   0.51319
C          C       0.75600   0.84045   0.95936
C          C       0.78685   0.86090   0.95559
C          C       0.79947   0.88712   0.50407
H          H       0.84384   0.88789   0.53829
C          C       0.53973   0.71510   0.90583
C          C       0.50000   0.73383   0.89707
C          C       0.64465   0.70068   0.77226
C          C       0.62664   0.67740   0.85586
C          C       0.78086   0.89245   0.55654
C          C       0.75012   0.87179   0.56124
C          C       0.60853   0.76808   0.50353
C          C       0.83170   0.90947   0.99920
C          C       0.59207   0.75932   0.92933
C          C       0.56069   0.74533   0.93105
C          C       0.54539   0.74016   0.50716
C          C       0.56198   0.74879   0.58126
C          C       0.59332   0.76293   0.57940
N          N       0.65330   0.74813   0.56360
C          C       0.67966   0.75158   0.59249
N          N       0.70298   0.77990   0.58354
C          C       0.51245   0.72699   0.51073
C          C       0.73300   0.79008   0.61810
C          C       0.62401   0.72027   0.55779
N          N       0.49664   0.72105   0.94315
N          N       0.85079   0.90225   0.97013
C          C       0.88242   0.92262   0.96055
C          C       0.90193   0.91115   0.95983
C          C       0.93290   0.93033   0.95186
C          C       0.94517   0.96159   0.94021
C          C       0.92475   0.97233   0.93429
C          C       0.89409   0.95342   0.94727
Au         Au      0.68474   0.71911   0.64377
Cl         Cl      0.69047   0.68226   0.70184
C          C       0.62568   0.69192   0.57442
C          C       0.73192   0.78911   0.71288
C          C       0.35854   0.69508   0.91653
Cl         Cl      0.76597   0.09712   0.97023
C          C       0.95996   0.97041   0.68785
Cl         Cl      0.26509   0.03482   0.93432
C          C       0.29163   0.74371   0.94298
C          C       0.27862   0.71958   0.88745
C          C       0.29046   0.70049   0.87821
C          C       0.31590   0.70549   0.92375
C          C       0.32955   0.73030   0.97740
C          C       0.31764   0.74929   0.98685
C          C       0.03015   0.99181   0.93851
C          C       0.32754   0.68434   0.91824
C          C       0.17759   0.85073   0.58011
C          C       0.19367   0.83537   0.57363
C          C       0.22173   0.84854   0.53340
C          C       0.23338   0.87785   0.50140
C          C       0.21782   0.89316   0.50921
C          C       0.18920   0.87980   0.54709
C          C       0.16994   0.89344   0.54761
C          C       0.15575   0.89451   0.97432
C          C       0.13722   0.90717   0.97459
C          C       0.13211   0.91836   0.54872
C          C       0.14550   0.91623   0.62252
C          C       0.16407   0.90361   0.62211
C          C       0.23742   0.83128   0.52754
C          C       0.11319   0.93246   0.55032
C          C       0.23329   0.81333   0.95790
C          C       0.24780   0.79654   0.95292
C          C       0.26637   0.79725   0.51816
C          C       0.27008   0.81496   0.58827
C          C       0.25557   0.83175   0.59315
N          N       0.25997   0.89574   0.96255
C          C       0.25998   0.92181   0.94881
N          N       0.23480   0.92104   0.97676
C          C       0.28182   0.77959   0.51486
C          C       0.23090   0.94734   0.97958
C          C       0.28354   0.88854   0.94163
N          N       0.27796   0.76202   0.95243
N          N       0.10083   0.93506   0.98270
C          C       0.08272   0.94902   0.97457
C          C       0.08033   0.96663   0.53777
C          C       0.06322   0.98047   0.52504
C          C       0.04890   0.97771   0.94900
C          C       0.05023   0.95926   0.88725
C          C       0.06743   0.94544   0.89956
Au         Au      0.29374   0.95869   0.89809
C          C       0.31077   0.91409   0.89833
C          C       0.23817   0.96137   0.56591
C          C       0.30767   0.65329   0.92034
Cl         Cl      0.97543   0.75931   0.97060
C          C       0.01126   0.97900   0.69832
C          C       0.99908   0.97247   0.93121
C          C       0.74622   0.45400   0.63980
C          C       0.73138   0.44250   0.56417
C          C       0.71052   0.41192   0.55581
C          C       0.70427   0.39247   0.62332
C          C       0.71825   0.40400   0.69984
C          C       0.73909   0.43450   0.70830
C          C       0.98036   0.95937   0.68986
C          C       0.68297   0.36001   0.61483
C          C       0.86534   0.67393   0.76270
C          C       0.84929   0.64257   0.75483
C          C       0.86184   0.62741   0.71337
C          C       0.89123   0.64471   0.68139
C          C       0.90733   0.67547   0.69124
C          C       0.89458   0.69105   0.73020
C          C       0.90891   0.72399   0.73284
C          C       0.91194   0.74028   0.65993
C          C       0.92330   0.77127   0.66342
C          C       0.93112   0.78623   0.74025
C          C       0.92770   0.76976   0.81303
C          C       0.91647   0.73885   0.80942
C          C       0.84404   0.59453   0.70788
C          C       0.94168   0.81858   0.74685
C          C       0.82402   0.58092   0.64178
C          C       0.80574   0.54972   0.63911
C          C       0.80710   0.53176   0.70308
C          C       0.82720   0.54555   0.76917
C          C       0.84542   0.57676   0.77185
N          N       0.90855   0.63568   0.64120
C          C       0.93520   0.66139   0.62945
N          N       0.93530   0.68591   0.65986
C          C       0.78736   0.49885   0.70311
C          C       0.96244   0.71540   0.66795
C          C       0.90023   0.60490   0.61705
N          N       0.76741   0.48561   0.64510
N          N       0.94530   0.83491   0.68142
C          C       0.95369   0.86604   0.68404
C          C       0.96893   0.88455   0.61616
C          C       0.97759   0.91502   0.61728
C          C       0.97021   0.92704   0.68541
C          C       0.95465   0.90853   0.75263
C          C       0.94622   0.87823   0.75201
Au         Au      0.97171   0.66374   0.57861
C          C       0.92484   0.60289   0.56951
C          C       0.97457   0.72021   0.75646
C          C       0.65221   0.35024   0.60988
C          C       0.36226   0.62288   0.93724
N          N       0.37878   0.63027   0.51666
C          C       0.35809   0.61675   0.58758
C          C       0.37588   0.62687   0.66863
N          N       0.39901   0.61806   0.67022
C          C       0.41954   0.63106   0.59894
C          C       0.40163   0.62096   0.51718
C          C       0.44327   0.62138   0.60121
H          H       0.43143   0.65605   0.60239
C          C       0.72643   0.34966   0.60961
N          N       0.73824   0.36437   0.52840
C          C       0.77123   0.38356   0.53180
C          C       0.78377   0.39922   0.94768
N          N       0.77408   0.37695   0.88017
C          C       0.74135   0.35697   0.87816
C          C       0.72983   0.34166   0.96232
C          C       0.77571   0.42379   0.93019
C          C       0.92873   0.95057   0.65042
N          N       0.90338   0.93668   0.71120
C          C       0.88549   0.90392   0.69490
C          C       0.85726   0.88841   0.74967
N          N       0.83797   0.90142   0.73469
C          C       0.85453   0.93369   0.75164
C          C       0.88377   0.95004   0.70092
C          C       0.83959   0.85460   0.73288
C          C       0.07567   0.04479   0.92822
N          N       0.09273   0.06051   0.50411
C          C       0.11843   0.05555   0.51878
C          C       0.14449   0.07276   0.95626
N          N       0.14726   0.10156   0.92974
C          C       0.13643   0.11402   0.99360
C          C       0.10245   0.09315   0.50534
C          C       0.17419   0.07722   0.99211
