data_crystal

_cell_length_a    26.02940
_cell_length_b    26.02940
_cell_length_c    7.66080
_cell_angle_alpha 90.00000
_cell_angle_beta  90.00000
_cell_angle_gamma 120.00000

_space_group_name_Hall 'P 1'
_space_group_name_H-M_alt 'P 1'

loop_
_symmetry_equiv_pos_as_xyz
 'x,y,z'

loop_
_atom_site_label
_atom_site_type_symbol
_atom_site_fract_x
_atom_site_fract_y
_atom_site_fract_z
C          C       0.26186   0.81845   0.16439
C          C       0.18155   0.44341   0.16439
C          C       0.55659   0.73814   0.16439
C          C       0.26910   0.73147   0.23903
C          C       0.26853   0.53763   0.23903
C          C       0.46237   0.73090   0.23903
C          C       0.18038   0.73666   0.32028
C          C       0.26334   0.44372   0.32028
C          C       0.55628   0.81962   0.32028
C          C       0.30214   0.69823   0.23608
C          C       0.30177   0.60391   0.23608
C          C       0.39609   0.69786   0.23608
C          C       0.10113   0.22745   0.23555
C          C       0.77255   0.87368   0.23555
C          C       0.12632   0.89887   0.23555
C          C       0.07932   0.12778   0.31367
C          C       0.87222   0.95154   0.31367
C          C       0.04846   0.92068   0.31367
C          C       0.17263   0.21431   0.40155
C          C       0.78569   0.95832   0.40155
C          C       0.04168   0.82737   0.40155
C          C       0.03859   0.06216   0.31171
C          C       0.93784   0.97643   0.31171
C          C       0.02357   0.96141   0.31171
H          H       0.28050   0.86160   0.10307
H          H       0.13840   0.41890   0.10307
H          H       0.58110   0.71950   0.10307
H          H       0.19849   0.66719   0.39737
H          H       0.33281   0.53130   0.39737
H          H       0.46870   0.80151   0.39737
H          H       0.08731   0.25525   0.16896
H          H       0.74475   0.83206   0.16896
H          H       0.16794   0.91269   0.16896
H          H       0.14751   0.12534   0.47008
H          H       0.87466   0.02217   0.47008
H          H       0.97783   0.85249   0.47008
H          H       0.95875   0.06753   0.31185
H          H       0.93247   0.89122   0.31185
H          H       0.10878   0.04125   0.31185
C          C       0.68102   0.87650   0.32161
C          C       0.12350   0.80452   0.32161
C          C       0.19548   0.31898   0.32161
C          C       0.58978   0.87738   0.39328
C          C       0.12262   0.71240   0.39328
C          C       0.28760   0.41022   0.39328
C          C       0.56294   0.91184   0.46608
C          C       0.08816   0.65110   0.46608
C          C       0.34890   0.43706   0.46608
O          O       0.51404   0.90221   0.42151
O          O       0.09779   0.61183   0.42151
O          O       0.38817   0.48596   0.42151
C          C       0.29250   0.78726   0.15829
C          C       0.21274   0.50524   0.15829
C          C       0.49476   0.70750   0.15829
C          C       0.21369   0.70738   0.32327
C          C       0.29262   0.50631   0.32327
C          C       0.49369   0.78631   0.32327
C          C       0.20642   0.79372   0.24437
C          C       0.20628   0.41270   0.24437
C          C       0.58730   0.79358   0.24437
C          C       0.27140   0.63585   0.23544
C          C       0.36415   0.63555   0.23544
C          C       0.36445   0.72860   0.23544
C          C       0.06334   0.16603   0.23138
C          C       0.83397   0.89731   0.23138
C          C       0.10269   0.93666   0.23138
C          C       0.13447   0.15291   0.39899
C          C       0.84709   0.98156   0.39899
C          C       0.01844   0.86553   0.39899
C          C       0.15657   0.25285   0.31993
C          C       0.74715   0.90372   0.31993
C          C       0.09628   0.84343   0.31993
C          C       0.97674   0.03809   0.31152
C          C       0.96191   0.93865   0.31152
C          C       0.06135   0.02326   0.31152
H          H       0.33401   0.80661   0.08732
H          H       0.19339   0.52740   0.08732
H          H       0.47260   0.66599   0.08732
H          H       0.22348   0.61199   0.23519
H          H       0.38801   0.61149   0.23519
H          H       0.38851   0.77652   0.23519
H          H       0.02235   0.14862   0.15868
H          H       0.85138   0.87373   0.15868
H          H       0.12627   0.97765   0.15868
H          H       0.21352   0.23056   0.47305
H          H       0.76944   0.98296   0.47305
H          H       0.01704   0.78648   0.47305
N          N       0.64737   0.82210   0.24835
N          N       0.17790   0.82527   0.24835
N          N       0.17473   0.35263   0.24835
C          C       0.65211   0.90494   0.39339
C          C       0.09506   0.74717   0.39339
C          C       0.25283   0.34789   0.39339
H          H       0.67703   0.94898   0.44716
H          H       0.05102   0.72805   0.44716
H          H       0.27195   0.32297   0.44716
O          O       0.59380   0.95619   0.07916
O          O       0.04381   0.63761   0.07916
O          O       0.36239   0.40620   0.07916
H          H       0.57500   0.97712   0.12667
H          H       0.02288   0.59788   0.12667
H          H       0.40212   0.42500   0.12667
C          C       0.26186   0.81845   0.66439
C          C       0.18155   0.44341   0.66439
C          C       0.55659   0.73814   0.66439
C          C       0.26910   0.73147   0.73903
C          C       0.26853   0.53763   0.73903
C          C       0.46237   0.73090   0.73903
C          C       0.18038   0.73666   0.82029
C          C       0.26334   0.44372   0.82029
C          C       0.55628   0.81962   0.82029
C          C       0.30214   0.69823   0.73608
C          C       0.30177   0.60391   0.73608
C          C       0.39609   0.69786   0.73608
C          C       0.10113   0.22745   0.73555
C          C       0.77255   0.87368   0.73555
C          C       0.12632   0.89887   0.73555
C          C       0.07932   0.12778   0.81367
C          C       0.87222   0.95154   0.81367
C          C       0.04846   0.92068   0.81367
C          C       0.17263   0.21431   0.90155
C          C       0.78569   0.95832   0.90155
C          C       0.04168   0.82737   0.90155
C          C       0.03859   0.06216   0.81171
C          C       0.93784   0.97643   0.81171
C          C       0.02357   0.96141   0.81171
H          H       0.28050   0.86160   0.60306
H          H       0.13840   0.41890   0.60306
H          H       0.58110   0.71950   0.60306
H          H       0.19849   0.66719   0.89737
H          H       0.33281   0.53130   0.89737
H          H       0.46870   0.80151   0.89737
H          H       0.08731   0.25525   0.66896
H          H       0.74475   0.83206   0.66896
H          H       0.16794   0.91269   0.66896
H          H       0.14751   0.12534   0.97008
H          H       0.87466   0.02217   0.97008
H          H       0.97783   0.85249   0.97008
H          H       0.95875   0.06753   0.81185
H          H       0.93247   0.89122   0.81185
H          H       0.10878   0.04125   0.81185
C          C       0.68102   0.87650   0.82161
C          C       0.12350   0.80452   0.82161
C          C       0.19548   0.31898   0.82161
C          C       0.58978   0.87738   0.89328
C          C       0.12262   0.71240   0.89328
C          C       0.28760   0.41022   0.89328
C          C       0.56294   0.91184   0.96607
C          C       0.08816   0.65110   0.96607
C          C       0.34890   0.43706   0.96607
O          O       0.51404   0.90221   0.92151
O          O       0.09779   0.61183   0.92151
O          O       0.38817   0.48596   0.92151
C          C       0.29250   0.78726   0.65829
C          C       0.21274   0.50524   0.65829
C          C       0.49476   0.70750   0.65829
C          C       0.21369   0.70738   0.82327
C          C       0.29262   0.50631   0.82327
C          C       0.49369   0.78631   0.82327
C          C       0.20642   0.79372   0.74437
C          C       0.20628   0.41270   0.74437
C          C       0.58730   0.79358   0.74437
C          C       0.27140   0.63585   0.73544
C          C       0.36415   0.63555   0.73544
C          C       0.36445   0.72860   0.73544
C          C       0.06334   0.16603   0.73138
C          C       0.83397   0.89731   0.73138
C          C       0.10269   0.93666   0.73138
C          C       0.13447   0.15291   0.89899
C          C       0.84709   0.98156   0.89899
C          C       0.01844   0.86553   0.89899
C          C       0.15657   0.25285   0.81993
C          C       0.74715   0.90372   0.81993
C          C       0.09628   0.84343   0.81993
C          C       0.97674   0.03809   0.81152
C          C       0.96191   0.93865   0.81152
C          C       0.06135   0.02326   0.81152
H          H       0.33401   0.80661   0.58732
H          H       0.19339   0.52740   0.58732
H          H       0.47260   0.66599   0.58732
H          H       0.22348   0.61199   0.73519
H          H       0.38801   0.61149   0.73519
H          H       0.38851   0.77652   0.73519
H          H       0.02235   0.14862   0.65869
H          H       0.85138   0.87373   0.65869
H          H       0.12627   0.97765   0.65869
H          H       0.21352   0.23056   0.97305
H          H       0.76944   0.98296   0.97305
H          H       0.01704   0.78648   0.97305
N          N       0.64737   0.82210   0.74835
N          N       0.17790   0.82527   0.74835
N          N       0.17473   0.35263   0.74835
C          C       0.65211   0.90494   0.89339
C          C       0.09506   0.74717   0.89339
C          C       0.25283   0.34789   0.89339
H          H       0.67703   0.94898   0.94715
H          H       0.05102   0.72805   0.94715
H          H       0.27195   0.32297   0.94715
O          O       0.59380   0.95619   0.57916
O          O       0.04381   0.63761   0.57916
O          O       0.36239   0.40620   0.57916
H          H       0.57500   0.97712   0.62667
H          H       0.02288   0.59788   0.62667
H          H       0.40212   0.42500   0.62667
