data_crystal

_cell_length_a    37.05440
_cell_length_b    37.05440
_cell_length_c    7.09780
_cell_angle_alpha 90.00000
_cell_angle_beta  90.00000
_cell_angle_gamma 120.00000

_space_group_name_Hall 'P 1'
_space_group_name_H-M_alt 'P 1'

loop_
_symmetry_equiv_pos_as_xyz
 'x,y,z'

loop_
_atom_site_label
_atom_site_type_symbol
_atom_site_fract_x
_atom_site_fract_y
_atom_site_fract_z
C          C       0.35693   0.64802   0.29682
C          C       0.35198   0.70891   0.29682
C          C       0.29109   0.64307   0.29682
C          C       0.64307   0.35198   0.29682
C          C       0.64802   0.29109   0.29682
C          C       0.70891   0.35693   0.29682
C          C       0.38260   0.62762   0.30156
C          C       0.37238   0.75498   0.30156
C          C       0.24502   0.61740   0.30156
C          C       0.61740   0.37238   0.30156
C          C       0.62762   0.24502   0.30156
C          C       0.75498   0.38260   0.30156
C          C       0.38841   0.56475   0.26794
C          C       0.43525   0.82366   0.26794
C          C       0.17634   0.61159   0.26794
C          C       0.61159   0.43525   0.26794
C          C       0.56475   0.17634   0.26794
C          C       0.82366   0.38841   0.26794
C          C       0.44878   0.63104   0.35958
C          C       0.36896   0.81774   0.35958
C          C       0.18226   0.55122   0.35958
C          C       0.55122   0.36896   0.35958
C          C       0.63104   0.18226   0.35958
C          C       0.81774   0.44878   0.35958
N          N       0.45548   0.57116   0.32260
N          N       0.42884   0.88432   0.32260
N          N       0.11568   0.54452   0.32260
N          N       0.54452   0.42884   0.32260
N          N       0.57116   0.11568   0.32260
N          N       0.88432   0.45548   0.32260
C          C       0.47084   0.51430   0.28503
C          C       0.48570   0.95654   0.28503
C          C       0.04346   0.52916   0.28503
C          C       0.52916   0.48570   0.28503
C          C       0.51430   0.04346   0.28503
C          C       0.95654   0.47084   0.28503
C          C       0.48604   0.45741   0.28771
C          C       0.54259   0.02863   0.28771
C          C       0.97137   0.51396   0.28771
C          C       0.51396   0.54259   0.28771
C          C       0.45741   0.97137   0.28771
C          C       0.02863   0.48604   0.28771
C          C       0.37200   0.52181   0.22598
C          C       0.47819   0.85019   0.22598
C          C       0.14981   0.62800   0.22598
C          C       0.62800   0.47819   0.22598
C          C       0.52181   0.14981   0.22598
C          C       0.85019   0.37200   0.22598
H          H       0.43918   0.68325   0.38737
H          H       0.31675   0.75593   0.38737
H          H       0.24407   0.56082   0.38737
H          H       0.56082   0.31675   0.38737
H          H       0.68325   0.24407   0.38737
H          H       0.75593   0.43918   0.38737
H          H       0.47448   0.42416   0.28802
H          H       0.57584   0.05032   0.28802
H          H       0.94968   0.52552   0.28802
H          H       0.52552   0.57584   0.28802
H          H       0.42416   0.94968   0.28802
H          H       0.05032   0.47448   0.28802
C          C       0.67269   0.50751   0.17997
C          C       0.49249   0.16518   0.17997
C          C       0.83482   0.32731   0.17997
C          C       0.32731   0.49249   0.17997
C          C       0.50751   0.83482   0.17997
C          C       0.16518   0.67269   0.17997
O          O       0.70441   0.50115   0.24566
O          O       0.49885   0.20326   0.24566
O          O       0.79674   0.29559   0.24566
O          O       0.29559   0.49885   0.24566
O          O       0.50115   0.79674   0.24566
O          O       0.20326   0.70441   0.24566
H          H       0.42463   0.44817   0.29630
H          H       0.55183   0.97646   0.29630
H          H       0.02354   0.57537   0.29630
H          H       0.57537   0.55183   0.29630
H          H       0.44817   0.02354   0.29630
H          H       0.97646   0.42463   0.29630
N          N       0.37532   0.69011   0.29705
N          N       0.30989   0.68521   0.29705
N          N       0.31479   0.62468   0.29705
N          N       0.62468   0.30989   0.29705
N          N       0.69011   0.31479   0.29705
N          N       0.68521   0.37532   0.29705
C          C       0.36479   0.58506   0.25723
C          C       0.41494   0.77973   0.25723
C          C       0.22027   0.63521   0.25723
C          C       0.63521   0.41494   0.25723
C          C       0.58506   0.22027   0.25723
C          C       0.77973   0.36479   0.25723
C          C       0.43104   0.58876   0.31761
C          C       0.41124   0.84228   0.31761
C          C       0.15772   0.56896   0.31761
C          C       0.56896   0.41124   0.31761
C          C       0.58876   0.15772   0.31761
C          C       0.84228   0.43104   0.31761
C          C       0.42484   0.65043   0.35208
C          C       0.34957   0.77441   0.35208
C          C       0.22559   0.57516   0.35208
C          C       0.57516   0.34957   0.35208
C          C       0.65043   0.22559   0.35208
C          C       0.77441   0.42484   0.35208
C          C       0.44116   0.53050   0.28013
C          C       0.46950   0.91066   0.28013
C          C       0.08934   0.55884   0.28013
C          C       0.55884   0.46950   0.28013
C          C       0.53050   0.08934   0.28013
C          C       0.91066   0.44116   0.28013
C          C       0.45729   0.47137   0.28937
C          C       0.52863   0.98592   0.28937
C          C       0.01408   0.54271   0.28937
C          C       0.54271   0.52863   0.28937
C          C       0.47137   0.01408   0.28937
C          C       0.98592   0.45729   0.28937
H          H       0.33289   0.56893   0.20947
H          H       0.43107   0.76396   0.20947
H          H       0.23604   0.66711   0.20947
H          H       0.66711   0.43107   0.20947
H          H       0.56893   0.23604   0.20947
H          H       0.76396   0.33289   0.20947
H          H       0.48134   0.64880   0.39872
H          H       0.35120   0.83254   0.39872
H          H       0.16746   0.51866   0.39872
H          H       0.51866   0.35120   0.39872
H          H       0.64880   0.16746   0.39872
H          H       0.83254   0.48134   0.39872
C          C       0.39917   0.50551   0.22918
C          C       0.49449   0.89366   0.22918
C          C       0.10634   0.60083   0.22918
C          C       0.60083   0.49449   0.22918
C          C       0.50551   0.10634   0.22918
C          C       0.89366   0.39917   0.22918
H          H       0.38709   0.47332   0.19026
H          H       0.52668   0.91377   0.19026
H          H       0.08623   0.61291   0.19026
H          H       0.61291   0.52668   0.19026
H          H       0.47332   0.08623   0.19026
H          H       0.91377   0.38709   0.19026
O          O       0.68207   0.53884   0.08852
O          O       0.46116   0.14323   0.08852
O          O       0.85677   0.31793   0.08852
O          O       0.31793   0.46116   0.08852
O          O       0.53884   0.85677   0.08852
O          O       0.14323   0.68207   0.08852
H          H       0.73230   0.52518   0.20474
H          H       0.47482   0.20712   0.20474
H          H       0.79288   0.26770   0.20474
H          H       0.26770   0.47482   0.20474
H          H       0.52518   0.79288   0.20474
H          H       0.20712   0.73230   0.20474
C          C       0.35693   0.64802   0.79682
C          C       0.35198   0.70891   0.79682
C          C       0.29109   0.64307   0.79682
C          C       0.64307   0.35198   0.79682
C          C       0.64802   0.29109   0.79682
C          C       0.70891   0.35693   0.79682
C          C       0.38260   0.62762   0.80156
C          C       0.37238   0.75498   0.80156
C          C       0.24502   0.61740   0.80156
C          C       0.61740   0.37238   0.80156
C          C       0.62762   0.24502   0.80156
C          C       0.75498   0.38260   0.80156
C          C       0.38841   0.56475   0.76794
C          C       0.43525   0.82366   0.76794
C          C       0.17634   0.61159   0.76794
C          C       0.61159   0.43525   0.76794
C          C       0.56475   0.17634   0.76794
C          C       0.82366   0.38841   0.76794
C          C       0.44878   0.63104   0.85959
C          C       0.36896   0.81774   0.85959
C          C       0.18226   0.55122   0.85959
C          C       0.55122   0.36896   0.85959
C          C       0.63104   0.18226   0.85959
C          C       0.81774   0.44878   0.85959
N          N       0.45548   0.57116   0.82260
N          N       0.42884   0.88432   0.82260
N          N       0.11568   0.54452   0.82260
N          N       0.54452   0.42884   0.82260
N          N       0.57116   0.11568   0.82260
N          N       0.88432   0.45548   0.82260
C          C       0.47084   0.51430   0.78504
C          C       0.48570   0.95654   0.78504
C          C       0.04346   0.52916   0.78504
C          C       0.52916   0.48570   0.78504
C          C       0.51430   0.04346   0.78504
C          C       0.95654   0.47084   0.78504
C          C       0.48604   0.45741   0.78771
C          C       0.54259   0.02863   0.78771
C          C       0.97137   0.51396   0.78771
C          C       0.51396   0.54259   0.78771
C          C       0.45741   0.97137   0.78771
C          C       0.02863   0.48604   0.78771
C          C       0.37200   0.52181   0.72597
C          C       0.47819   0.85019   0.72597
C          C       0.14981   0.62800   0.72597
C          C       0.62800   0.47819   0.72597
C          C       0.52181   0.14981   0.72597
C          C       0.85019   0.37200   0.72597
H          H       0.43918   0.68325   0.88737
H          H       0.31675   0.75593   0.88737
H          H       0.24407   0.56082   0.88737
H          H       0.56082   0.31675   0.88737
H          H       0.68325   0.24407   0.88737
H          H       0.75593   0.43918   0.88737
H          H       0.47448   0.42416   0.78801
H          H       0.57584   0.05032   0.78801
H          H       0.94968   0.52552   0.78801
H          H       0.52552   0.57584   0.78801
H          H       0.42416   0.94968   0.78801
H          H       0.05032   0.47448   0.78801
C          C       0.67269   0.50751   0.67997
C          C       0.49249   0.16518   0.67997
C          C       0.83482   0.32731   0.67997
C          C       0.32731   0.49249   0.67997
C          C       0.50751   0.83482   0.67997
C          C       0.16518   0.67269   0.67997
O          O       0.70441   0.50115   0.74566
O          O       0.49885   0.20326   0.74566
O          O       0.79674   0.29559   0.74566
O          O       0.29559   0.49885   0.74566
O          O       0.50115   0.79674   0.74566
O          O       0.20326   0.70441   0.74566
H          H       0.42463   0.44817   0.79631
H          H       0.55183   0.97646   0.79631
H          H       0.02354   0.57537   0.79631
H          H       0.57537   0.55183   0.79631
H          H       0.44817   0.02354   0.79631
H          H       0.97646   0.42463   0.79631
N          N       0.37532   0.69011   0.79705
N          N       0.30989   0.68521   0.79705
N          N       0.31479   0.62468   0.79705
N          N       0.62468   0.30989   0.79705
N          N       0.69011   0.31479   0.79705
N          N       0.68521   0.37532   0.79705
C          C       0.36479   0.58506   0.75723
C          C       0.41494   0.77973   0.75723
C          C       0.22027   0.63521   0.75723
C          C       0.63521   0.41494   0.75723
C          C       0.58506   0.22027   0.75723
C          C       0.77973   0.36479   0.75723
C          C       0.43104   0.58876   0.81761
C          C       0.41124   0.84228   0.81761
C          C       0.15772   0.56896   0.81761
C          C       0.56896   0.41124   0.81761
C          C       0.58876   0.15772   0.81761
C          C       0.84228   0.43104   0.81761
C          C       0.42484   0.65043   0.85208
C          C       0.34957   0.77441   0.85208
C          C       0.22559   0.57516   0.85208
C          C       0.57516   0.34957   0.85208
C          C       0.65043   0.22559   0.85208
C          C       0.77441   0.42484   0.85208
C          C       0.44116   0.53050   0.78013
C          C       0.46950   0.91066   0.78013
C          C       0.08934   0.55884   0.78013
C          C       0.55884   0.46950   0.78013
C          C       0.53050   0.08934   0.78013
C          C       0.91066   0.44116   0.78013
C          C       0.45729   0.47137   0.78937
C          C       0.52863   0.98592   0.78937
C          C       0.01408   0.54271   0.78937
C          C       0.54271   0.52863   0.78937
C          C       0.47137   0.01408   0.78937
C          C       0.98592   0.45729   0.78937
H          H       0.33289   0.56893   0.70947
H          H       0.43107   0.76396   0.70947
H          H       0.23604   0.66711   0.70947
H          H       0.66711   0.43107   0.70947
H          H       0.56893   0.23604   0.70947
H          H       0.76396   0.33289   0.70947
H          H       0.48134   0.64880   0.89872
H          H       0.35120   0.83254   0.89872
H          H       0.16746   0.51866   0.89872
H          H       0.51866   0.35120   0.89872
H          H       0.64880   0.16746   0.89872
H          H       0.83254   0.48134   0.89872
C          C       0.39917   0.50551   0.72918
C          C       0.49449   0.89366   0.72918
C          C       0.10634   0.60083   0.72918
C          C       0.60083   0.49449   0.72918
C          C       0.50551   0.10634   0.72918
C          C       0.89366   0.39917   0.72918
H          H       0.38709   0.47332   0.69026
H          H       0.52668   0.91377   0.69026
H          H       0.08623   0.61291   0.69026
H          H       0.61291   0.52668   0.69026
H          H       0.47332   0.08623   0.69026
H          H       0.91377   0.38709   0.69026
O          O       0.68207   0.53884   0.58853
O          O       0.46116   0.14323   0.58853
O          O       0.85677   0.31793   0.58853
O          O       0.31793   0.46116   0.58853
O          O       0.53884   0.85677   0.58853
O          O       0.14323   0.68207   0.58853
H          H       0.73230   0.52518   0.70474
H          H       0.47482   0.20712   0.70474
H          H       0.79288   0.26770   0.70474
H          H       0.26770   0.47482   0.70474
H          H       0.52518   0.79288   0.70474
H          H       0.20712   0.73230   0.70474
