data_crystal

_cell_length_a    25.92420
_cell_length_b    25.92420
_cell_length_c    7.18880
_cell_angle_alpha 90.00000
_cell_angle_beta  90.00000
_cell_angle_gamma 120.00000

_space_group_name_Hall 'P 1'
_space_group_name_H-M_alt 'P 1'

loop_
_symmetry_equiv_pos_as_xyz
 'x,y,z'

loop_
_atom_site_label
_atom_site_type_symbol
_atom_site_fract_x
_atom_site_fract_y
_atom_site_fract_z
C          C       0.27573   0.82796   0.39674
C          C       0.17204   0.44777   0.39674
C          C       0.55223   0.72427   0.39674
C          C       0.27350   0.73333   0.37621
C          C       0.26667   0.54017   0.37621
C          C       0.45983   0.72650   0.37621
C          C       0.18233   0.73778   0.32201
C          C       0.26222   0.44455   0.32201
C          C       0.55545   0.81767   0.32201
C          C       0.30469   0.69854   0.38346
C          C       0.30146   0.60615   0.38346
C          C       0.39385   0.69531   0.38346
C          C       0.09521   0.22889   0.24800
C          C       0.77111   0.86632   0.24800
C          C       0.13368   0.90479   0.24800
C          C       0.07769   0.12914   0.31806
C          C       0.87086   0.94855   0.31806
C          C       0.05145   0.92231   0.31806
C          C       0.17325   0.21740   0.39062
C          C       0.78260   0.95585   0.39062
C          C       0.04415   0.82675   0.39062
C          C       0.03775   0.06275   0.31761
C          C       0.93725   0.97500   0.31761
C          C       0.02500   0.96225   0.31761
H          H       0.30007   0.87545   0.42251
H          H       0.12455   0.42462   0.42251
H          H       0.57538   0.69993   0.42251
H          H       0.18807   0.65691   0.32417
H          H       0.34309   0.53116   0.32417
H          H       0.46884   0.81193   0.32417
H          H       0.01546   0.14933   0.17727
H          H       0.85067   0.86613   0.17727
H          H       0.13387   0.98454   0.17727
H          H       0.21714   0.23623   0.45211
H          H       0.76377   0.98091   0.45211
H          H       0.01909   0.78286   0.45211
N          N       0.64517   0.81250   0.35405
N          N       0.18750   0.83267   0.35405
N          N       0.16733   0.35483   0.35405
C          C       0.65298   0.90564   0.28070
C          C       0.09436   0.74734   0.28070
C          C       0.25266   0.34702   0.28070
H          H       0.68049   0.95230   0.24543
H          H       0.04770   0.72819   0.24543
H          H       0.27181   0.31951   0.24543
O          O       0.59806   0.97615   0.22562
O          O       0.02385   0.62191   0.22562
O          O       0.37809   0.40194   0.22562
H          H       0.58169   0.99951   0.17555
H          H       0.00049   0.58218   0.17555
H          H       0.41782   0.41831   0.17555
C          C       0.30507   0.79524   0.40430
C          C       0.20476   0.50983   0.40430
C          C       0.49017   0.69493   0.40430
C          C       0.21206   0.70485   0.33808
C          C       0.29515   0.50721   0.33808
C          C       0.49279   0.78794   0.33808
C          C       0.21497   0.79982   0.35711
C          C       0.20018   0.41515   0.35711
C          C       0.58485   0.78503   0.35711
N          N       0.27323   0.63821   0.38322
N          N       0.36179   0.63502   0.38322
N          N       0.36498   0.72677   0.38322
C          C       0.05834   0.16703   0.24413
C          C       0.83297   0.89131   0.24413
C          C       0.10869   0.94166   0.24413
C          C       0.13573   0.15563   0.39294
C          C       0.84437   0.98010   0.39294
C          C       0.01990   0.86427   0.39294
C          C       0.15318   0.25460   0.31895
C          C       0.74540   0.89858   0.31895
C          C       0.10142   0.84682   0.31895
C          C       0.97541   0.03712   0.31756
C          C       0.96288   0.93829   0.31756
C          C       0.06171   0.02459   0.31756
H          H       0.35239   0.81808   0.43501
H          H       0.18192   0.53431   0.43501
H          H       0.46569   0.64761   0.43501
H          H       0.07942   0.25700   0.18924
H          H       0.74300   0.82242   0.18924
H          H       0.17758   0.92058   0.18924
H          H       0.15193   0.12917   0.45997
H          H       0.87083   0.02276   0.45997
H          H       0.97724   0.84807   0.45997
H          H       0.95644   0.06575   0.31760
H          H       0.93425   0.89069   0.31760
H          H       0.10931   0.04356   0.31760
C          C       0.67987   0.87165   0.31989
C          C       0.12835   0.80822   0.31989
C          C       0.19178   0.32013   0.31989
C          C       0.59061   0.87905   0.27598
C          C       0.12095   0.71156   0.27598
C          C       0.28844   0.40939   0.27598
C          C       0.56539   0.91663   0.21282
C          C       0.08337   0.64876   0.21282
C          C       0.35124   0.43461   0.21282
O          O       0.51716   0.89490   0.13608
O          O       0.10510   0.62226   0.13608
O          O       0.37774   0.48284   0.13608
C          C       0.27573   0.82796   0.89675
C          C       0.17204   0.44777   0.89675
C          C       0.55223   0.72427   0.89675
C          C       0.27350   0.73333   0.87621
C          C       0.26667   0.54017   0.87621
C          C       0.45983   0.72650   0.87621
C          C       0.18233   0.73778   0.82201
C          C       0.26222   0.44455   0.82201
C          C       0.55545   0.81767   0.82201
C          C       0.30469   0.69854   0.88346
C          C       0.30146   0.60615   0.88346
C          C       0.39385   0.69531   0.88346
C          C       0.09521   0.22889   0.74799
C          C       0.77111   0.86632   0.74799
C          C       0.13368   0.90479   0.74799
C          C       0.07769   0.12914   0.81806
C          C       0.87086   0.94855   0.81806
C          C       0.05145   0.92231   0.81806
C          C       0.17325   0.21740   0.89062
C          C       0.78260   0.95585   0.89062
C          C       0.04415   0.82675   0.89062
C          C       0.03775   0.06275   0.81761
C          C       0.93725   0.97500   0.81761
C          C       0.02500   0.96225   0.81761
H          H       0.30007   0.87545   0.92251
H          H       0.12455   0.42462   0.92251
H          H       0.57538   0.69993   0.92251
H          H       0.18807   0.65691   0.82417
H          H       0.34309   0.53116   0.82417
H          H       0.46884   0.81193   0.82417
H          H       0.01546   0.14933   0.67727
H          H       0.85067   0.86613   0.67727
H          H       0.13387   0.98454   0.67727
H          H       0.21714   0.23623   0.95211
H          H       0.76377   0.98091   0.95211
H          H       0.01909   0.78286   0.95211
N          N       0.64517   0.81250   0.85405
N          N       0.18750   0.83267   0.85405
N          N       0.16733   0.35483   0.85405
C          C       0.65298   0.90564   0.78070
C          C       0.09436   0.74734   0.78070
C          C       0.25266   0.34702   0.78070
H          H       0.68049   0.95230   0.74543
H          H       0.04770   0.72819   0.74543
H          H       0.27181   0.31951   0.74543
O          O       0.59806   0.97615   0.72562
O          O       0.02385   0.62191   0.72562
O          O       0.37809   0.40194   0.72562
H          H       0.58169   0.99951   0.67554
H          H       0.00049   0.58218   0.67554
H          H       0.41782   0.41831   0.67554
C          C       0.30507   0.79524   0.90429
C          C       0.20476   0.50983   0.90429
C          C       0.49017   0.69493   0.90429
C          C       0.21206   0.70485   0.83808
C          C       0.29515   0.50721   0.83808
C          C       0.49279   0.78794   0.83808
C          C       0.21497   0.79982   0.85711
C          C       0.20018   0.41515   0.85711
C          C       0.58485   0.78503   0.85711
N          N       0.27323   0.63821   0.88322
N          N       0.36179   0.63502   0.88322
N          N       0.36498   0.72677   0.88322
C          C       0.05834   0.16703   0.74413
C          C       0.83297   0.89131   0.74413
C          C       0.10869   0.94166   0.74413
C          C       0.13573   0.15563   0.89294
C          C       0.84437   0.98010   0.89294
C          C       0.01990   0.86427   0.89294
C          C       0.15318   0.25460   0.81895
C          C       0.74540   0.89858   0.81895
C          C       0.10142   0.84682   0.81895
C          C       0.97541   0.03712   0.81756
C          C       0.96288   0.93829   0.81756
C          C       0.06171   0.02459   0.81756
H          H       0.35239   0.81808   0.93502
H          H       0.18192   0.53431   0.93502
H          H       0.46569   0.64761   0.93502
H          H       0.07942   0.25700   0.68924
H          H       0.74300   0.82242   0.68924
H          H       0.17758   0.92058   0.68924
H          H       0.15193   0.12917   0.95998
H          H       0.87083   0.02276   0.95998
H          H       0.97724   0.84807   0.95998
H          H       0.95644   0.06575   0.81760
H          H       0.93425   0.89069   0.81760
H          H       0.10931   0.04356   0.81760
C          C       0.67987   0.87165   0.81989
C          C       0.12835   0.80822   0.81989
C          C       0.19178   0.32013   0.81989
C          C       0.59061   0.87905   0.77598
C          C       0.12095   0.71156   0.77598
C          C       0.28844   0.40939   0.77598
C          C       0.56539   0.91663   0.71283
C          C       0.08337   0.64876   0.71283
C          C       0.35124   0.43461   0.71283
O          O       0.51716   0.89490   0.63608
O          O       0.10510   0.62226   0.63608
O          O       0.37774   0.48284   0.63608
