data_crystal

_cell_length_a    37.26930
_cell_length_b    37.26930
_cell_length_c    7.38180
_cell_angle_alpha 90.00000
_cell_angle_beta  90.00000
_cell_angle_gamma 120.00000

_space_group_name_Hall 'P 1'
_space_group_name_H-M_alt 'P 1'

loop_
_symmetry_equiv_pos_as_xyz
 'x,y,z'

loop_
_atom_site_label
_atom_site_type_symbol
_atom_site_fract_x
_atom_site_fract_y
_atom_site_fract_z
C          C       0.35768   0.64720   0.32881
C          C       0.35280   0.71048   0.32881
C          C       0.28952   0.64232   0.32881
C          C       0.64232   0.35280   0.32881
C          C       0.64720   0.28952   0.32881
C          C       0.71048   0.35768   0.32881
C          C       0.38333   0.62655   0.33080
C          C       0.37345   0.75678   0.33080
C          C       0.24322   0.61667   0.33080
C          C       0.61667   0.37345   0.33080
C          C       0.62655   0.24322   0.33080
C          C       0.75678   0.38333   0.33080
C          C       0.39095   0.56602   0.26411
C          C       0.43398   0.82493   0.26411
C          C       0.17507   0.60905   0.26411
C          C       0.60905   0.43398   0.26411
C          C       0.56602   0.17507   0.26411
C          C       0.82493   0.39095   0.26411
C          C       0.44717   0.62721   0.40802
C          C       0.37279   0.81996   0.40802
C          C       0.18004   0.55283   0.40802
C          C       0.55283   0.37279   0.40802
C          C       0.62721   0.18004   0.40802
C          C       0.81996   0.44717   0.40802
N          N       0.45579   0.56999   0.33494
N          N       0.43001   0.88580   0.33494
N          N       0.11420   0.54421   0.33494
N          N       0.54421   0.43001   0.33494
N          N       0.56999   0.11420   0.33494
N          N       0.88580   0.45579   0.33494
C          C       0.47174   0.51495   0.26956
C          C       0.48505   0.95679   0.26956
C          C       0.04321   0.52826   0.26956
C          C       0.52826   0.48505   0.26956
C          C       0.51495   0.04321   0.26956
C          C       0.95679   0.47174   0.26956
C          C       0.48530   0.45745   0.27176
C          C       0.54255   0.02785   0.27176
C          C       0.97215   0.51470   0.27176
C          C       0.51470   0.54255   0.27176
C          C       0.45745   0.97215   0.27176
C          C       0.02785   0.48530   0.27176
H          H       0.33970   0.57351   0.17835
H          H       0.42649   0.76619   0.17835
H          H       0.23381   0.66030   0.17835
H          H       0.66030   0.42649   0.17835
H          H       0.57351   0.23381   0.17835
H          H       0.76619   0.33970   0.17835
H          H       0.47790   0.64316   0.46691
H          H       0.35684   0.83474   0.46691
H          H       0.16526   0.52210   0.46691
H          H       0.52210   0.35684   0.46691
H          H       0.64316   0.16526   0.46691
H          H       0.83474   0.47790   0.46691
C          C       0.40237   0.50853   0.19878
C          C       0.49147   0.89384   0.19878
C          C       0.10616   0.59763   0.19878
C          C       0.59763   0.49147   0.19878
C          C       0.50853   0.10616   0.19878
C          C       0.89384   0.40237   0.19878
H          H       0.39154   0.47791   0.14381
H          H       0.52209   0.91363   0.14381
H          H       0.08637   0.60846   0.14381
H          H       0.60846   0.52209   0.14381
H          H       0.47791   0.08637   0.14381
H          H       0.91363   0.39154   0.14381
O          O       0.67660   0.53136   0.03929
O          O       0.46864   0.14524   0.03929
O          O       0.85476   0.32340   0.03929
O          O       0.32340   0.46864   0.03929
O          O       0.53136   0.85476   0.03929
O          O       0.14524   0.67660   0.03929
H          H       0.72843   0.51941   0.16864
H          H       0.48059   0.20902   0.16864
H          H       0.79098   0.27157   0.16864
H          H       0.27157   0.48059   0.16864
H          H       0.51941   0.79098   0.16864
H          H       0.20902   0.72843   0.16864
C          C       0.37649   0.69064   0.32884
C          C       0.30936   0.68585   0.32884
C          C       0.31415   0.62351   0.32884
C          C       0.62351   0.30936   0.32884
C          C       0.69064   0.31415   0.32884
C          C       0.68585   0.37649   0.32884
C          C       0.36817   0.58687   0.25413
C          C       0.41313   0.78130   0.25413
C          C       0.21870   0.63183   0.25413
C          C       0.63183   0.41313   0.25413
C          C       0.58687   0.21870   0.25413
C          C       0.78130   0.36817   0.25413
C          C       0.43154   0.58758   0.33580
C          C       0.41242   0.84396   0.33580
C          C       0.15604   0.56846   0.33580
C          C       0.56846   0.41242   0.33580
C          C       0.58758   0.15604   0.33580
C          C       0.84396   0.43154   0.33580
C          C       0.42304   0.64612   0.40979
C          C       0.35388   0.77692   0.40979
C          C       0.22308   0.57696   0.40979
C          C       0.57696   0.35388   0.40979
C          C       0.64612   0.22308   0.40979
C          C       0.77692   0.42304   0.40979
C          C       0.44274   0.53146   0.26803
C          C       0.46854   0.91128   0.26803
C          C       0.08872   0.55726   0.26803
C          C       0.55726   0.46854   0.26803
C          C       0.53146   0.08872   0.26803
C          C       0.91128   0.44274   0.26803
C          C       0.45740   0.47214   0.27264
C          C       0.52786   0.98526   0.27264
C          C       0.01474   0.54260   0.27264
C          C       0.54260   0.52786   0.27264
C          C       0.47214   0.01474   0.27264
C          C       0.98526   0.45740   0.27264
H          H       0.40984   0.70916   0.32954
H          H       0.29084   0.70068   0.32954
H          H       0.29932   0.59016   0.32954
H          H       0.59016   0.29084   0.32954
H          H       0.70916   0.29932   0.32954
H          H       0.70068   0.40984   0.32954
C          C       0.37560   0.52494   0.19984
C          C       0.47506   0.85066   0.19984
C          C       0.14934   0.62440   0.19984
C          C       0.62440   0.47506   0.19984
C          C       0.52494   0.14934   0.19984
C          C       0.85066   0.37560   0.19984
H          H       0.43556   0.67586   0.47608
H          H       0.32414   0.75970   0.47608
H          H       0.24030   0.56444   0.47608
H          H       0.56444   0.32414   0.47608
H          H       0.67586   0.24030   0.47608
H          H       0.75970   0.43556   0.47608
H          H       0.47311   0.42429   0.27205
H          H       0.57571   0.04882   0.27205
H          H       0.95118   0.52689   0.27205
H          H       0.52689   0.57571   0.27205
H          H       0.42429   0.95118   0.27205
H          H       0.04882   0.47311   0.27205
C          C       0.66816   0.50271   0.14294
C          C       0.49729   0.16545   0.14294
C          C       0.83455   0.33184   0.14294
C          C       0.33184   0.49729   0.14294
C          C       0.50271   0.83455   0.14294
C          C       0.16545   0.66816   0.14294
O          O       0.70015   0.49815   0.21644
O          O       0.50185   0.20200   0.21644
O          O       0.79800   0.29985   0.21644
O          O       0.29985   0.50185   0.21644
O          O       0.49815   0.79800   0.21644
O          O       0.20200   0.70015   0.21644
H          H       0.42468   0.44973   0.27858
H          H       0.55027   0.97495   0.27858
H          H       0.02505   0.57532   0.27858
H          H       0.57532   0.55027   0.27858
H          H       0.44973   0.02505   0.27858
H          H       0.97495   0.42468   0.27858
C          C       0.35768   0.64720   0.82881
C          C       0.35280   0.71048   0.82881
C          C       0.28952   0.64232   0.82881
C          C       0.64232   0.35280   0.82881
C          C       0.64720   0.28952   0.82881
C          C       0.71048   0.35768   0.82881
C          C       0.38333   0.62655   0.83079
C          C       0.37345   0.75678   0.83079
C          C       0.24322   0.61667   0.83079
C          C       0.61667   0.37345   0.83079
C          C       0.62655   0.24322   0.83079
C          C       0.75678   0.38333   0.83079
C          C       0.39095   0.56602   0.76411
C          C       0.43398   0.82493   0.76411
C          C       0.17507   0.60905   0.76411
C          C       0.60905   0.43398   0.76411
C          C       0.56602   0.17507   0.76411
C          C       0.82493   0.39095   0.76411
C          C       0.44717   0.62721   0.90802
C          C       0.37279   0.81996   0.90802
C          C       0.18004   0.55283   0.90802
C          C       0.55283   0.37279   0.90802
C          C       0.62721   0.18004   0.90802
C          C       0.81996   0.44717   0.90802
N          N       0.45579   0.56999   0.83494
N          N       0.43001   0.88580   0.83494
N          N       0.11420   0.54421   0.83494
N          N       0.54421   0.43001   0.83494
N          N       0.56999   0.11420   0.83494
N          N       0.88580   0.45579   0.83494
C          C       0.47174   0.51495   0.76956
C          C       0.48505   0.95679   0.76956
C          C       0.04321   0.52826   0.76956
C          C       0.52826   0.48505   0.76956
C          C       0.51495   0.04321   0.76956
C          C       0.95679   0.47174   0.76956
C          C       0.48530   0.45745   0.77175
C          C       0.54255   0.02785   0.77175
C          C       0.97215   0.51470   0.77175
C          C       0.51470   0.54255   0.77175
C          C       0.45745   0.97215   0.77175
C          C       0.02785   0.48530   0.77175
H          H       0.33970   0.57351   0.67834
H          H       0.42649   0.76619   0.67834
H          H       0.23381   0.66030   0.67834
H          H       0.66030   0.42649   0.67834
H          H       0.57351   0.23381   0.67834
H          H       0.76619   0.33970   0.67834
H          H       0.47790   0.64316   0.96691
H          H       0.35684   0.83474   0.96691
H          H       0.16526   0.52210   0.96691
H          H       0.52210   0.35684   0.96691
H          H       0.64316   0.16526   0.96691
H          H       0.83474   0.47790   0.96691
C          C       0.40237   0.50853   0.69878
C          C       0.49147   0.89384   0.69878
C          C       0.10616   0.59763   0.69878
C          C       0.59763   0.49147   0.69878
C          C       0.50853   0.10616   0.69878
C          C       0.89384   0.40237   0.69878
H          H       0.39154   0.47791   0.64382
H          H       0.52209   0.91363   0.64382
H          H       0.08637   0.60846   0.64382
H          H       0.60846   0.52209   0.64382
H          H       0.47791   0.08637   0.64382
H          H       0.91363   0.39154   0.64382
O          O       0.67660   0.53136   0.53929
O          O       0.46864   0.14524   0.53929
O          O       0.85476   0.32340   0.53929
O          O       0.32340   0.46864   0.53929
O          O       0.53136   0.85476   0.53929
O          O       0.14524   0.67660   0.53929
H          H       0.72843   0.51941   0.66863
H          H       0.48059   0.20902   0.66863
H          H       0.79098   0.27157   0.66863
H          H       0.27157   0.48059   0.66863
H          H       0.51941   0.79098   0.66863
H          H       0.20902   0.72843   0.66863
C          C       0.37649   0.69064   0.82885
C          C       0.30936   0.68585   0.82885
C          C       0.31415   0.62351   0.82885
C          C       0.62351   0.30936   0.82885
C          C       0.69064   0.31415   0.82885
C          C       0.68585   0.37649   0.82885
C          C       0.36817   0.58687   0.75413
C          C       0.41313   0.78130   0.75413
C          C       0.21870   0.63183   0.75413
C          C       0.63183   0.41313   0.75413
C          C       0.58687   0.21870   0.75413
C          C       0.78130   0.36817   0.75413
C          C       0.43154   0.58758   0.83580
C          C       0.41242   0.84396   0.83580
C          C       0.15604   0.56846   0.83580
C          C       0.56846   0.41242   0.83580
C          C       0.58758   0.15604   0.83580
C          C       0.84396   0.43154   0.83580
C          C       0.42304   0.64612   0.90979
C          C       0.35388   0.77692   0.90979
C          C       0.22308   0.57696   0.90979
C          C       0.57696   0.35388   0.90979
C          C       0.64612   0.22308   0.90979
C          C       0.77692   0.42304   0.90979
C          C       0.44274   0.53146   0.76803
C          C       0.46854   0.91128   0.76803
C          C       0.08872   0.55726   0.76803
C          C       0.55726   0.46854   0.76803
C          C       0.53146   0.08872   0.76803
C          C       0.91128   0.44274   0.76803
C          C       0.45740   0.47214   0.77264
C          C       0.52786   0.98526   0.77264
C          C       0.01474   0.54260   0.77264
C          C       0.54260   0.52786   0.77264
C          C       0.47214   0.01474   0.77264
C          C       0.98526   0.45740   0.77264
H          H       0.40984   0.70916   0.82955
H          H       0.29084   0.70068   0.82955
H          H       0.29932   0.59016   0.82955
H          H       0.59016   0.29084   0.82955
H          H       0.70916   0.29932   0.82955
H          H       0.70068   0.40984   0.82955
C          C       0.37560   0.52494   0.69984
C          C       0.47506   0.85066   0.69984
C          C       0.14934   0.62440   0.69984
C          C       0.62440   0.47506   0.69984
C          C       0.52494   0.14934   0.69984
C          C       0.85066   0.37560   0.69984
H          H       0.43556   0.67586   0.97608
H          H       0.32414   0.75970   0.97608
H          H       0.24030   0.56444   0.97608
H          H       0.56444   0.32414   0.97608
H          H       0.67586   0.24030   0.97608
H          H       0.75970   0.43556   0.97608
H          H       0.47311   0.42429   0.77205
H          H       0.57571   0.04882   0.77205
H          H       0.95118   0.52689   0.77205
H          H       0.52689   0.57571   0.77205
H          H       0.42429   0.95118   0.77205
H          H       0.04882   0.47311   0.77205
C          C       0.66816   0.50271   0.64294
C          C       0.49729   0.16545   0.64294
C          C       0.83455   0.33184   0.64294
C          C       0.33184   0.49729   0.64294
C          C       0.50271   0.83455   0.64294
C          C       0.16545   0.66816   0.64294
O          O       0.70015   0.49815   0.71644
O          O       0.50185   0.20200   0.71644
O          O       0.79800   0.29985   0.71644
O          O       0.29985   0.50185   0.71644
O          O       0.49815   0.79800   0.71644
O          O       0.20200   0.70015   0.71644
H          H       0.42468   0.44973   0.77857
H          H       0.55027   0.97495   0.77857
H          H       0.02505   0.57532   0.77857
H          H       0.57532   0.55027   0.77857
H          H       0.44973   0.02505   0.77857
H          H       0.97495   0.42468   0.77857
