data_crystal

_cell_length_a    23.17000
_cell_length_b    23.17000
_cell_length_c    9.78000
_cell_angle_alpha 90.00000
_cell_angle_beta  90.00000
_cell_angle_gamma 90.00000

_space_group_name_Hall 'P 1'
_space_group_name_H-M_alt 'P 1'

loop_
_symmetry_equiv_pos_as_xyz
 'x,y,z'

loop_
_atom_site_label
_atom_site_type_symbol
_atom_site_fract_x
_atom_site_fract_y
_atom_site_fract_z
N          N       0.47740   0.82930   0.03100
O          O       0.52110   0.85930   0.22320
C          C       0.49510   0.87190   0.11910
O          O       0.38430   0.91350   0.01330
C          C       0.42800   0.95320   0.04695
C          C       0.48240   0.93380   0.09255
C          C       0.52480   0.97480   0.12490
O          O       0.12540   0.50420   0.36595
N          N       0.13540   0.44380   0.04435
C          C       0.10290   0.47790   0.45985
O          O       0.02030   0.40950   0.30105
C          C       0.04020   0.48250   0.47890
C          C       0.01890   0.52320   0.07180
C          C       0.00140   0.45050   0.39695
C          C       0.29030   0.47820   0.49270
C          C       0.31350   0.42800   0.43060
C          C       0.36920   0.43150   0.37680
C          C       0.40130   0.48170   0.38430
C          C       0.38040   0.53040   0.45060
C          C       0.32450   0.52850   0.00470
C          C       0.40260   0.39210   0.30575
C          C       0.45290   0.42070   0.27185
N          N       0.45260   0.47540   0.32035
C          C       0.39390   0.33410   0.27195
C          C       0.43800   0.30520   0.19880
C          C       0.48840   0.33600   0.15970
C          C       0.49620   0.39380   0.19680
N          N       0.49810   0.51570   0.31540
C          C       0.55310   0.50740   0.35720
C          C       0.58660   0.55550   0.33130
C          C       0.55030   0.59580   0.27170
C          C       0.49670   0.56990   0.26350
C          C       0.55980   0.65210   0.22515
C          C       0.51260   0.68240   0.16805
C          C       0.45800   0.65490   0.15840
C          C       0.44980   0.59850   0.20625
C          C       0.57630   0.45840   0.41845
C          C       0.63530   0.45800   0.44890
C          C       0.67050   0.50630   0.41825
C          C       0.64550   0.55650   0.36040
C          C       0.22930   0.48170   0.03330
C          C       0.43400   0.24260   0.17150
C          C       0.51950   0.74310   0.12410
C          C       0.73320   0.50120   0.43980
N          N       0.19510   0.43750   0.02520
N          N       0.47680   0.77030   0.06630
N          N       0.47810   0.15910   0.06260
O          O       0.38980   0.12760   0.12130
C          C       0.43960   0.11590   0.09260
O          O       0.55920   0.07160   0.14930
N          N       0.47080   0.21860   0.08875
C          C       0.51330   0.03410   0.12045
C          C       0.45720   0.05380   0.08595
C          C       0.41540   0.01260   0.04965
N          N       0.82860   0.53780   0.41080
O          O       0.83320   0.49050   0.11205
C          C       0.85800   0.50900   0.01145
O          O       0.94150   0.57790   0.17155
N          N       0.76810   0.54220   0.40300
C          C       0.95970   0.53440   0.08115
C          C       0.92090   0.50200   0.00010
C          C       0.94230   0.46130   0.40705
H          H       0.45630   0.84090   0.44130
H          H       0.56740   0.96070   0.15640
H          H       0.11480   0.41730   0.11540
H          H       0.04860   0.54820   0.13360
H          H       0.28840   0.38890   0.41965
H          H       0.40560   0.56950   0.45685
H          H       0.30720   0.56690   0.05250
H          H       0.35500   0.31180   0.30350
H          H       0.52280   0.31470   0.10510
H          H       0.53550   0.41620   0.17075
H          H       0.60190   0.67180   0.23440
H          H       0.42120   0.67750   0.11645
H          H       0.40790   0.57840   0.20045
H          H       0.55010   0.42100   0.43925
H          H       0.65400   0.41950   0.49345
H          H       0.67120   0.59410   0.33570
H          H       0.21170   0.52340   0.06240
H          H       0.40350   0.21730   0.22985
H          H       0.56020   0.76480   0.14160
H          H       0.75010   0.46050   0.47610
H          H       0.51700   0.14790   0.01735
H          H       0.37200   0.02670   0.02510
H          H       0.85250   0.56040   0.33820
H          H       0.91270   0.43700   0.34340
C          C       0.55760   0.09500   0.28385
C          C       0.61280   0.12880   0.31510
C          C       0.62960   0.17150   0.20170
C          C       0.67240   0.21790   0.25225
C          C       0.64480   0.27750   0.27635
C          C       0.59510   0.27610   0.37835
H          H       0.60580   0.15260   0.41155
H          H       0.59040   0.19210   0.15820
H          H       0.70650   0.22350   0.17340
H          H       0.62920   0.29590   0.17865
H          H       0.60910   0.25480   0.47370
H          H       0.55370   0.05960   0.35990
H          H       0.51990   0.12410   0.29475
H          H       0.64900   0.09810   0.33180
H          H       0.65060   0.14640   0.11880
H          H       0.69480   0.20360   0.34695
H          H       0.67860   0.30710   0.31605
H          H       0.55730   0.25270   0.33605
H          H       0.58160   0.32090   0.40185
C          C       0.36150   0.91960   0.37765
C          C       0.29980   0.89530   0.37035
C          C       0.29580   0.83800   0.29210
C          C       0.32000   0.78700   0.37380
C          C       0.31280   0.73060   0.29370
C          C       0.33630   0.67930   0.37350
H          H       0.28130   0.89050   0.47445
H          H       0.31870   0.84180   0.19270
H          H       0.29670   0.78360   0.47270
H          H       0.33610   0.73380   0.19480
H          H       0.32900   0.63910   0.31420
H          H       0.39060   0.89730   0.30465
H          H       0.35990   0.96560   0.34465
H          H       0.27220   0.92720   0.31580
H          H       0.24950   0.82960   0.26955
H          H       0.36650   0.79430   0.39500
H          H       0.26630   0.72310   0.27200
H          H       0.31410   0.67530   0.47355
H          H       0.38340   0.68460   0.39050
C          C       0.05490   0.36360   0.35495
C          C       0.03550   0.30580   0.29505
C          C       0.07300   0.25540   0.34780
C          C       0.11570   0.23140   0.24160
C          C       0.16190   0.27450   0.19315
C          C       0.20500   0.29060   0.30490
H          H       0.98990   0.29850   0.32650
H          H       0.04380   0.21950   0.37755
H          H       0.09080   0.21600   0.15165
H          H       0.14160   0.31400   0.15105
H          H       0.18380   0.31550   0.38755
H          H       0.05180   0.36100   0.46830
H          H       0.10050   0.37150   0.32695
H          H       0.03600   0.30790   0.18165
H          H       0.09660   0.26770   0.44190
H          H       0.13740   0.19290   0.28575
H          H       0.18640   0.25390   0.10840
H          H       0.23950   0.31800   0.26015
H          H       0.22520   0.25130   0.34870
C          C       0.90570   0.62200   0.11335
C          C       0.91960   0.68010   0.17900
C          C       0.88100   0.72910   0.12485
C          C       0.81670   0.72190   0.16325
C          C       0.77970   0.70340   0.04065
C          C       0.71780   0.69000   0.08390
H          H       0.86000   0.61120   0.13440
H          H       0.91210   0.62550   0.00095
H          H       0.91470   0.67680   0.29160
H          H       0.89690   0.77000   0.17070
H          H       0.81170   0.69010   0.24745
H          H       0.77890   0.73890   0.46425
H          H       0.69820   0.72790   0.13530
H          H       0.69160   0.67910   0.49250
H          H       0.96540   0.69100   0.15715
H          H       0.88670   0.73350   0.01245
H          H       0.80000   0.76380   0.20180
H          H       0.79830   0.66450   0.49130
H          H       0.71730   0.65250   0.15465
N          N       0.47740   0.82930   0.53100
O          O       0.52110   0.85930   0.72320
C          C       0.49510   0.87190   0.61910
O          O       0.38430   0.91350   0.51330
C          C       0.42800   0.95320   0.54695
C          C       0.48240   0.93380   0.59255
C          C       0.52480   0.97480   0.62490
O          O       0.12540   0.50420   0.86595
N          N       0.13540   0.44380   0.54435
C          C       0.10290   0.47790   0.95985
O          O       0.02030   0.40950   0.80105
C          C       0.04020   0.48250   0.97890
C          C       0.01890   0.52320   0.57180
C          C       0.00140   0.45050   0.89695
C          C       0.29030   0.47820   0.99270
C          C       0.31350   0.42800   0.93060
C          C       0.36920   0.43150   0.87680
C          C       0.40130   0.48170   0.88430
C          C       0.38040   0.53040   0.95060
C          C       0.32450   0.52850   0.50470
C          C       0.40260   0.39210   0.80575
C          C       0.45290   0.42070   0.77185
N          N       0.45260   0.47540   0.82035
C          C       0.39390   0.33410   0.77195
C          C       0.43800   0.30520   0.69880
C          C       0.48840   0.33600   0.65970
C          C       0.49620   0.39380   0.69680
N          N       0.49810   0.51570   0.81540
C          C       0.55310   0.50740   0.85720
C          C       0.58660   0.55550   0.83130
C          C       0.55030   0.59580   0.77170
C          C       0.49670   0.56990   0.76350
C          C       0.55980   0.65210   0.72515
C          C       0.51260   0.68240   0.66805
C          C       0.45800   0.65490   0.65840
C          C       0.44980   0.59850   0.70625
C          C       0.57630   0.45840   0.91845
C          C       0.63530   0.45800   0.94890
C          C       0.67050   0.50630   0.91825
C          C       0.64550   0.55650   0.86040
C          C       0.22930   0.48170   0.53330
C          C       0.43400   0.24260   0.67150
C          C       0.51950   0.74310   0.62410
C          C       0.73320   0.50120   0.93980
N          N       0.19510   0.43750   0.52520
N          N       0.47680   0.77030   0.56630
N          N       0.47810   0.15910   0.56260
O          O       0.38980   0.12760   0.62130
C          C       0.43960   0.11590   0.59260
O          O       0.55920   0.07160   0.64930
N          N       0.47080   0.21860   0.58875
C          C       0.51330   0.03410   0.62045
C          C       0.45720   0.05380   0.58595
C          C       0.41540   0.01260   0.54965
N          N       0.82860   0.53780   0.91080
O          O       0.83320   0.49050   0.61205
C          C       0.85800   0.50900   0.51145
O          O       0.94150   0.57790   0.67155
N          N       0.76810   0.54220   0.90300
C          C       0.95970   0.53440   0.58115
C          C       0.92090   0.50200   0.50010
C          C       0.94230   0.46130   0.90705
H          H       0.45630   0.84090   0.94130
H          H       0.56740   0.96070   0.65640
H          H       0.11480   0.41730   0.61540
H          H       0.04860   0.54820   0.63360
H          H       0.28840   0.38890   0.91965
H          H       0.40560   0.56950   0.95685
H          H       0.30720   0.56690   0.55250
H          H       0.35500   0.31180   0.80350
H          H       0.52280   0.31470   0.60510
H          H       0.53550   0.41620   0.67075
H          H       0.60190   0.67180   0.73440
H          H       0.42120   0.67750   0.61645
H          H       0.40790   0.57840   0.70045
H          H       0.55010   0.42100   0.93925
H          H       0.65400   0.41950   0.99345
H          H       0.67120   0.59410   0.83570
H          H       0.21170   0.52340   0.56240
H          H       0.40350   0.21730   0.72985
H          H       0.56020   0.76480   0.64160
H          H       0.75010   0.46050   0.97610
H          H       0.51700   0.14790   0.51735
H          H       0.37200   0.02670   0.52510
H          H       0.85250   0.56040   0.83820
H          H       0.91270   0.43700   0.84340
C          C       0.55760   0.09500   0.78385
C          C       0.61280   0.12880   0.81510
C          C       0.62960   0.17150   0.70170
C          C       0.67240   0.21790   0.75225
C          C       0.64480   0.27750   0.77635
C          C       0.59510   0.27610   0.87835
H          H       0.60580   0.15260   0.91155
H          H       0.59040   0.19210   0.65820
H          H       0.70650   0.22350   0.67340
H          H       0.62920   0.29590   0.67865
H          H       0.60910   0.25480   0.97370
H          H       0.55370   0.05960   0.85990
H          H       0.51990   0.12410   0.79475
H          H       0.64900   0.09810   0.83180
H          H       0.65060   0.14640   0.61880
H          H       0.69480   0.20360   0.84695
H          H       0.67860   0.30710   0.81605
H          H       0.55730   0.25270   0.83605
H          H       0.58160   0.32090   0.90185
C          C       0.36150   0.91960   0.87765
C          C       0.29980   0.89530   0.87035
C          C       0.29580   0.83800   0.79210
C          C       0.32000   0.78700   0.87380
C          C       0.31280   0.73060   0.79370
C          C       0.33630   0.67930   0.87350
H          H       0.28130   0.89050   0.97445
H          H       0.31870   0.84180   0.69270
H          H       0.29670   0.78360   0.97270
H          H       0.33610   0.73380   0.69480
H          H       0.32900   0.63910   0.81420
H          H       0.39060   0.89730   0.80465
H          H       0.35990   0.96560   0.84465
H          H       0.27220   0.92720   0.81580
H          H       0.24950   0.82960   0.76955
H          H       0.36650   0.79430   0.89500
H          H       0.26630   0.72310   0.77200
H          H       0.31410   0.67530   0.97355
H          H       0.38340   0.68460   0.89050
C          C       0.05490   0.36360   0.85495
C          C       0.03550   0.30580   0.79505
C          C       0.07300   0.25540   0.84780
C          C       0.11570   0.23140   0.74160
C          C       0.16190   0.27450   0.69315
C          C       0.20500   0.29060   0.80490
H          H       0.98990   0.29850   0.82650
H          H       0.04380   0.21950   0.87755
H          H       0.09080   0.21600   0.65165
H          H       0.14160   0.31400   0.65105
H          H       0.18380   0.31550   0.88755
H          H       0.05180   0.36100   0.96830
H          H       0.10050   0.37150   0.82695
H          H       0.03600   0.30790   0.68165
H          H       0.09660   0.26770   0.94190
H          H       0.13740   0.19290   0.78575
H          H       0.18640   0.25390   0.60840
H          H       0.23950   0.31800   0.76015
H          H       0.22520   0.25130   0.84870
C          C       0.90570   0.62200   0.61335
C          C       0.91960   0.68010   0.67900
C          C       0.88100   0.72910   0.62485
C          C       0.81670   0.72190   0.66325
C          C       0.77970   0.70340   0.54065
C          C       0.71780   0.69000   0.58390
H          H       0.86000   0.61120   0.63440
H          H       0.91210   0.62550   0.50095
H          H       0.91470   0.67680   0.79160
H          H       0.89690   0.77000   0.67070
H          H       0.81170   0.69010   0.74745
H          H       0.77890   0.73890   0.96425
H          H       0.69820   0.72790   0.63530
H          H       0.69160   0.67910   0.99250
H          H       0.96540   0.69100   0.65715
H          H       0.88670   0.73350   0.51245
H          H       0.80000   0.76380   0.70180
H          H       0.79830   0.66450   0.99130
H          H       0.71730   0.65250   0.65465
