data_crystal

_cell_length_a    25.17990
_cell_length_b    25.41410
_cell_length_c    7.46440
_cell_angle_alpha 90.00000
_cell_angle_beta  90.00000
_cell_angle_gamma 120.00000

_space_group_name_Hall 'P 1'
_space_group_name_H-M_alt 'P 1'

loop_
_symmetry_equiv_pos_as_xyz
 'x,y,z'

loop_
_atom_site_label
_atom_site_type_symbol
_atom_site_fract_x
_atom_site_fract_y
_atom_site_fract_z
C          C       0.45293   0.96639   0.25043
C          C       0.48346   0.93517   0.29667
C          C       0.45300   0.87166   0.29419
C          C       0.39063   0.83781   0.24630
C          C       0.35980   0.86948   0.20180
C          C       0.39047   0.93300   0.20422
C          C       0.29391   0.73649   0.22642
C          C       0.26219   0.67285   0.22405
C          C       0.29597   0.64291   0.23931
C          C       0.35995   0.67501   0.25666
C          C       0.39023   0.73867   0.25883
C          C       0.35789   0.77015   0.24368
C          C       0.06438   0.57175   0.19469
C          C       0.09751   0.54185   0.23051
C          C       0.16154   0.57455   0.23822
C          C       0.19408   0.63777   0.20913
C          C       0.16060   0.66702   0.16780
C          C       0.09651   0.63410   0.16009
C          C       0.39473   0.64201   0.27192
C          C       0.36650   0.57968   0.23074
C          C       0.39925   0.54880   0.24336
C          C       0.46040   0.57882   0.29851
C          C       0.48920   0.64114   0.33929
C          C       0.45661   0.67233   0.32625
N          N       0.99852   0.54078   0.19143
N          N       0.49156   0.54454   0.30443
C          C       0.54454   0.56074   0.37664
C          C       0.57057   0.52025   0.36530
N          N       0.53785   0.46467   0.28730
C          C       0.56038   0.42631   0.26941
C          C       0.61950   0.44298   0.33220
C          C       0.65384   0.50033   0.41395
C          C       0.62960   0.53902   0.42972
C          C       0.64528   0.40179   0.30600
C          C       0.70877   0.42539   0.28470
C          C       0.73291   0.38693   0.25255
C          C       0.69235   0.32431   0.23375
C          C       0.62905   0.29943   0.25874
C          C       0.60623   0.33844   0.29831
C          C       0.80039   0.41152   0.24527
C          C       0.84056   0.46981   0.17666
N          N       0.90227   0.49267   0.18123
C          C       0.92760   0.46063   0.25011
C          C       0.88936   0.40194   0.31602
C          C       0.82598   0.37762   0.31422
C          C       0.58688   0.23274   0.24326
C          C       0.60504   0.19142   0.30104
N          N       0.56664   0.13062   0.28336
C          C       0.50969   0.10718   0.21057
C          C       0.48932   0.14656   0.15330
C          C       0.52793   0.20925   0.16957
C          C       0.46969   0.04097   0.19302
N          N       0.48687   0.03162   0.25635
C          C       0.99464   0.48734   0.25828
H          H       0.53126   0.96067   0.33515
H          H       0.47819   0.84917   0.33192
H          H       0.31192   0.84521   0.16374
H          H       0.36482   0.95524   0.17114
H          H       0.07457   0.49341   0.25197
H          H       0.18548   0.55024   0.26939
H          H       0.18383   0.71535   0.14140
H          H       0.07126   0.65710   0.12918
H          H       0.31936   0.55486   0.18570
H          H       0.37729   0.50111   0.20883
H          H       0.53670   0.66616   0.37933
H          H       0.47984   0.72015   0.35989
H          H       0.57024   0.60359   0.44588
H          H       0.53273   0.38389   0.19966
H          H       0.69870   0.51490   0.46990
H          H       0.73964   0.47375   0.29390
H          H       0.71014   0.29491   0.19693
H          H       0.55791   0.31907   0.32632
H          H       0.82308   0.49697   0.11756
H          H       0.90850   0.37583   0.37269
H          H       0.79727   0.33333   0.37346
H          H       0.64924   0.20726   0.36345
H          H       0.44434   0.12893   0.09407
H          H       0.51239   0.23925   0.11972
H          H       0.42648   0.02414   0.12406
H          H       0.01246   0.46210   0.32743
H          H       0.65632   0.61036   0.47787
C          C       0.45293   0.96639   0.75043
C          C       0.48346   0.93517   0.79666
C          C       0.45300   0.87166   0.79419
C          C       0.39063   0.83781   0.74630
C          C       0.35980   0.86948   0.70180
C          C       0.39047   0.93300   0.70423
C          C       0.29391   0.73649   0.72642
C          C       0.26219   0.67285   0.72405
C          C       0.29597   0.64291   0.73932
C          C       0.35995   0.67501   0.75666
C          C       0.39023   0.73867   0.75884
C          C       0.35789   0.77015   0.74368
C          C       0.06438   0.57175   0.69469
C          C       0.09751   0.54185   0.73051
C          C       0.16154   0.57455   0.73821
C          C       0.19408   0.63777   0.70913
C          C       0.16060   0.66702   0.66780
C          C       0.09651   0.63410   0.66009
C          C       0.39473   0.64201   0.77192
C          C       0.36650   0.57968   0.73074
C          C       0.39925   0.54880   0.74337
C          C       0.46040   0.57882   0.79851
C          C       0.48920   0.64114   0.83929
C          C       0.45661   0.67233   0.82625
N          N       0.99852   0.54078   0.69143
N          N       0.49156   0.54454   0.80442
C          C       0.54454   0.56074   0.87664
C          C       0.57057   0.52025   0.86530
N          N       0.53785   0.46467   0.78730
C          C       0.56038   0.42631   0.76941
C          C       0.61950   0.44298   0.83220
C          C       0.65384   0.50033   0.91395
C          C       0.62960   0.53902   0.92971
C          C       0.64528   0.40179   0.80600
C          C       0.70877   0.42539   0.78470
C          C       0.73291   0.38693   0.75255
C          C       0.69235   0.32431   0.73375
C          C       0.62905   0.29943   0.75874
C          C       0.60623   0.33844   0.79831
C          C       0.80039   0.41152   0.74526
C          C       0.84056   0.46981   0.67666
N          N       0.90227   0.49267   0.68123
C          C       0.92760   0.46063   0.75011
C          C       0.88936   0.40194   0.81602
C          C       0.82598   0.37762   0.81421
C          C       0.58688   0.23274   0.74326
C          C       0.60504   0.19142   0.80104
N          N       0.56664   0.13062   0.78336
C          C       0.50969   0.10718   0.71057
C          C       0.48932   0.14656   0.65330
C          C       0.52793   0.20925   0.66956
C          C       0.46969   0.04097   0.69302
N          N       0.48687   0.03162   0.75635
C          C       0.99464   0.48734   0.75828
H          H       0.53126   0.96067   0.83515
H          H       0.47819   0.84917   0.83192
H          H       0.31192   0.84521   0.66374
H          H       0.36482   0.95524   0.67114
H          H       0.07457   0.49341   0.75197
H          H       0.18548   0.55024   0.76939
H          H       0.18383   0.71535   0.64140
H          H       0.07126   0.65710   0.62918
H          H       0.31936   0.55486   0.68571
H          H       0.37729   0.50111   0.70883
H          H       0.53670   0.66616   0.87933
H          H       0.47984   0.72015   0.85989
H          H       0.57024   0.60359   0.94588
H          H       0.53273   0.38389   0.69966
H          H       0.69870   0.51490   0.96990
H          H       0.73964   0.47375   0.79390
H          H       0.71014   0.29491   0.69693
H          H       0.55791   0.31907   0.82632
H          H       0.82308   0.49697   0.61756
H          H       0.90850   0.37583   0.87269
H          H       0.79727   0.33333   0.87346
H          H       0.64924   0.20726   0.86345
H          H       0.44434   0.12893   0.59407
H          H       0.51239   0.23925   0.61972
H          H       0.42648   0.02414   0.62406
H          H       0.01246   0.46210   0.82743
H          H       0.65632   0.61036   0.97787
