data_crystal

_cell_length_a    25.97930
_cell_length_b    24.66320
_cell_length_c    7.25280
_cell_angle_alpha 90.00000
_cell_angle_beta  90.00000
_cell_angle_gamma 120.00000

_space_group_name_Hall 'P 1'
_space_group_name_H-M_alt 'P 1'

loop_
_symmetry_equiv_pos_as_xyz
 'x,y,z'

loop_
_atom_site_label
_atom_site_type_symbol
_atom_site_fract_x
_atom_site_fract_y
_atom_site_fract_z
C          C       0.43505   0.94974   0.20216
C          C       0.46668   0.91810   0.23312
C          C       0.43853   0.85380   0.24274
C          C       0.37554   0.81761   0.22365
C          C       0.34329   0.84951   0.19140
C          C       0.37290   0.91389   0.18132
N          N       0.28667   0.72224   0.22480
C          C       0.26050   0.65986   0.24319
N          N       0.28911   0.62791   0.27141
C          C       0.34849   0.66337   0.28227
N          N       0.37937   0.72602   0.26848
C          C       0.34615   0.75292   0.23928
C          C       0.07331   0.55659   0.22991
C          C       0.10669   0.52647   0.25642
C          C       0.16789   0.55944   0.25759
C          C       0.19896   0.62570   0.23361
C          C       0.16529   0.65618   0.20417
C          C       0.10414   0.62174   0.20273
C          C       0.38049   0.63268   0.30673
C          C       0.35091   0.56600   0.31365
C          C       0.38358   0.53607   0.32150
C          C       0.44600   0.56956   0.32731
C          C       0.47512   0.63546   0.32550
C          C       0.44380   0.66688   0.31629
N          N       0.01078   0.52419   0.22894
N          N       0.47690   0.53631   0.32998
C          C       0.53160   0.55587   0.37715
C          C       0.55639   0.51515   0.35074
N          N       0.52313   0.45822   0.27370
C          C       0.54556   0.42028   0.24572
C          C       0.60344   0.43671   0.29425
C          C       0.63873   0.49675   0.37489
C          C       0.61522   0.53501   0.40190
C          C       0.62458   0.39330   0.26216
C          C       0.68583   0.41378   0.25812
C          C       0.70823   0.37244   0.23912
C          C       0.66649   0.30835   0.21792
C          C       0.60467   0.28486   0.21814
C          C       0.58525   0.32859   0.23966
C          C       0.77088   0.39386   0.24747
C          C       0.81208   0.45497   0.19599
N          N       0.87099   0.47792   0.20603
C          C       0.89312   0.44217   0.26848
C          C       0.85422   0.38009   0.32142
C          C       0.79397   0.35570   0.31084
C          C       0.56279   0.21901   0.19778
C          C       0.57907   0.17511   0.24827
N          N       0.54240   0.11323   0.23007
C          C       0.48723   0.09053   0.16069
C          C       0.46771   0.13198   0.10817
C          C       0.50448   0.19533   0.12641
C          C       0.44799   0.02345   0.14341
N          N       0.46637   0.01554   0.19621
C          C       0.95679   0.46698   0.27983
H          H       0.51519   0.94535   0.25074
H          H       0.46491   0.83091   0.26843
H          H       0.29467   0.82308   0.17560
H          H       0.34666   0.93695   0.15778
H          H       0.08427   0.47560   0.27695
H          H       0.19243   0.53440   0.28080
H          H       0.18765   0.70717   0.18432
H          H       0.07886   0.64603   0.18063
H          H       0.30215   0.53799   0.30630
H          H       0.36012   0.48460   0.32229
H          H       0.52386   0.66306   0.32844
H          H       0.46805   0.71835   0.31124
H          H       0.56118   0.60284   0.43343
H          H       0.51394   0.37634   0.17805
H          H       0.68440   0.51274   0.42050
H          H       0.71760   0.46381   0.27713
H          H       0.68319   0.27574   0.19742
H          H       0.53718   0.31048   0.24736
H          H       0.80008   0.48859   0.14134
H          H       0.87177   0.35072   0.37347
H          H       0.76408   0.30755   0.35752
H          H       0.62203   0.18699   0.30929
H          H       0.42300   0.11398   0.05056
H          H       0.48906   0.22724   0.08056
H          H       0.40332   0.00730   0.08736
H          H       0.97177   0.43558   0.33420
H          H       0.64263   0.61090   0.46157
C          C       0.43505   0.94974   0.70217
C          C       0.46668   0.91810   0.73312
C          C       0.43853   0.85380   0.74274
C          C       0.37554   0.81761   0.72365
C          C       0.34329   0.84951   0.69141
C          C       0.37290   0.91389   0.68132
N          N       0.28667   0.72224   0.72480
C          C       0.26050   0.65986   0.74320
N          N       0.28911   0.62791   0.77141
C          C       0.34849   0.66337   0.78227
N          N       0.37937   0.72602   0.76848
C          C       0.34615   0.75292   0.73928
C          C       0.07331   0.55659   0.72991
C          C       0.10669   0.52647   0.75642
C          C       0.16789   0.55944   0.75760
C          C       0.19896   0.62570   0.73361
C          C       0.16529   0.65618   0.70417
C          C       0.10414   0.62174   0.70273
C          C       0.38049   0.63268   0.80673
C          C       0.35091   0.56600   0.81365
C          C       0.38358   0.53607   0.82150
C          C       0.44600   0.56956   0.82731
C          C       0.47512   0.63546   0.82550
C          C       0.44380   0.66688   0.81629
N          N       0.01078   0.52419   0.72894
N          N       0.47690   0.53631   0.82998
C          C       0.53160   0.55587   0.87715
C          C       0.55639   0.51515   0.85074
N          N       0.52313   0.45822   0.77370
C          C       0.54556   0.42028   0.74572
C          C       0.60344   0.43671   0.79426
C          C       0.63873   0.49675   0.87489
C          C       0.61522   0.53501   0.90190
C          C       0.62458   0.39330   0.76216
C          C       0.68583   0.41378   0.75812
C          C       0.70823   0.37244   0.73912
C          C       0.66649   0.30835   0.71792
C          C       0.60467   0.28486   0.71815
C          C       0.58525   0.32859   0.73965
C          C       0.77088   0.39386   0.74747
C          C       0.81208   0.45497   0.69598
N          N       0.87099   0.47792   0.70603
C          C       0.89312   0.44217   0.76848
C          C       0.85422   0.38009   0.82142
C          C       0.79397   0.35570   0.81084
C          C       0.56279   0.21901   0.69778
C          C       0.57907   0.17511   0.74826
N          N       0.54240   0.11323   0.73006
C          C       0.48723   0.09053   0.66069
C          C       0.46771   0.13198   0.60817
C          C       0.50448   0.19533   0.62641
C          C       0.44799   0.02345   0.64341
N          N       0.46637   0.01554   0.69621
C          C       0.95679   0.46698   0.77983
H          H       0.51519   0.94535   0.75074
H          H       0.46491   0.83091   0.76843
H          H       0.29467   0.82308   0.67560
H          H       0.34666   0.93695   0.65779
H          H       0.08427   0.47560   0.77695
H          H       0.19243   0.53440   0.78080
H          H       0.18765   0.70717   0.68432
H          H       0.07886   0.64603   0.68063
H          H       0.30215   0.53799   0.80630
H          H       0.36012   0.48460   0.82229
H          H       0.52386   0.66306   0.82844
H          H       0.46805   0.71835   0.81124
H          H       0.56118   0.60284   0.93343
H          H       0.51394   0.37634   0.67805
H          H       0.68440   0.51274   0.92050
H          H       0.71760   0.46381   0.77713
H          H       0.68319   0.27574   0.69742
H          H       0.53718   0.31048   0.74736
H          H       0.80008   0.48859   0.64135
H          H       0.87177   0.35072   0.87347
H          H       0.76408   0.30755   0.85753
H          H       0.62203   0.18699   0.80929
H          H       0.42300   0.11398   0.55056
H          H       0.48906   0.22724   0.58056
H          H       0.40332   0.00730   0.58736
H          H       0.97177   0.43558   0.83420
H          H       0.64263   0.61090   0.96157
