data_crystal

_cell_length_a    22.93470
_cell_length_b    23.61260
_cell_length_c    8.28140
_cell_angle_alpha 90.00000
_cell_angle_beta  90.00000
_cell_angle_gamma 120.00000

_space_group_name_Hall 'P 1'
_space_group_name_H-M_alt 'P 1'

loop_
_symmetry_equiv_pos_as_xyz
 'x,y,z'

loop_
_atom_site_label
_atom_site_type_symbol
_atom_site_fract_x
_atom_site_fract_y
_atom_site_fract_z
C          C       0.41565   0.91018   0.22140
C          C       0.44619   0.87622   0.16192
C          C       0.41125   0.80794   0.15860
C          C       0.34499   0.77145   0.21896
C          C       0.31513   0.80664   0.28124
C          C       0.34981   0.87512   0.28149
C          C       0.09296   0.58955   0.21198
C          C       0.13006   0.56642   0.29637
C          C       0.20028   0.60265   0.29880
C          C       0.23592   0.66235   0.21553
C          C       0.19836   0.68395   0.12684
C          C       0.12783   0.64817   0.12621
C          C       0.34693   0.66511   0.23123
C          C       0.32430   0.60491   0.15222
C          C       0.35966   0.57112   0.16461
C          C       0.41854   0.59630   0.25581
C          C       0.44216   0.65659   0.33453
C          C       0.40630   0.69000   0.32316
N          N       0.02053   0.55526   0.20899
N          N       0.45270   0.55937   0.26192
C          C       0.50362   0.57038   0.35253
C          C       0.53324   0.52778   0.34021
N          N       0.50313   0.47305   0.24687
C          C       0.52904   0.43275   0.22981
C          C       0.58910   0.44683   0.30862
C          C       0.62092   0.50319   0.40553
C          C       0.59305   0.54369   0.42142
C          C       0.61832   0.40352   0.28793
C          C       0.68838   0.42990   0.27990
C          C       0.71620   0.38922   0.26060
C          C       0.67311   0.32151   0.24464
C          C       0.60292   0.29404   0.25248
C          C       0.57614   0.33545   0.27597
C          C       0.79024   0.41717   0.26372
C          C       0.83363   0.47595   0.18358
N          N       0.90155   0.50248   0.19454
C          C       0.92996   0.47379   0.28248
C          C       0.88847   0.41475   0.36255
C          C       0.81870   0.38645   0.35269
C          C       0.55755   0.22220   0.23779
C          C       0.57503   0.17831   0.30667
N          N       0.53332   0.11272   0.29195
C          C       0.47345   0.08687   0.21246
C          C       0.45358   0.12871   0.14354
C          C       0.49593   0.19633   0.15513
C          C       0.42973   0.01545   0.20080
N          N       0.45403   0.98007   0.22749
C          C       0.00365   0.50459   0.29608
H          H       0.49734   0.90329   0.11713
H          H       0.43740   0.78414   0.11308
H          H       0.26494   0.78163   0.33022
H          H       0.32613   0.90075   0.33275
H          H       0.10586   0.52074   0.36137
H          H       0.22664   0.58340   0.36549
H          H       0.22348   0.72873   0.05898
H          H       0.09977   0.66579   0.05820
H          H       0.27883   0.58342   0.08215
H          H       0.34153   0.52499   0.10228
H          H       0.48788   0.67830   0.40491
H          H       0.42547   0.73583   0.38494
H          H       0.52525   0.61047   0.43739
H          H       0.50372   0.39088   0.15061
H          H       0.66630   0.51509   0.47197
H          H       0.72147   0.48219   0.29029
H          H       0.69447   0.29035   0.22368
H          H       0.52228   0.31439   0.28913
H          H       0.81353   0.50041   0.11120
H          H       0.90996   0.39141   0.43438
H          H       0.78705   0.34187   0.41915
H          H       0.62120   0.19600   0.37469
H          H       0.40647   0.10919   0.07854
H          H       0.48116   0.22830   0.09689
H          H       0.37786   0.99553   0.16321
H          H       0.02312   0.48401   0.38255
H          H       0.61754   0.58970   0.49576
N          N       0.33247   0.70292   0.21852
C          C       0.41565   0.91018   0.72140
C          C       0.44619   0.87622   0.66192
C          C       0.41125   0.80794   0.65860
C          C       0.34499   0.77145   0.71896
C          C       0.31513   0.80664   0.78124
C          C       0.34981   0.87512   0.78150
C          C       0.09296   0.58955   0.71198
C          C       0.13006   0.56642   0.79637
C          C       0.20028   0.60265   0.79879
C          C       0.23592   0.66235   0.71553
C          C       0.19836   0.68395   0.62684
C          C       0.12783   0.64817   0.62621
C          C       0.34693   0.66511   0.73123
C          C       0.32430   0.60491   0.65222
C          C       0.35966   0.57112   0.66460
C          C       0.41854   0.59630   0.75581
C          C       0.44216   0.65659   0.83453
C          C       0.40630   0.69000   0.82316
N          N       0.02053   0.55526   0.70900
N          N       0.45270   0.55937   0.76192
C          C       0.50362   0.57038   0.85253
C          C       0.53324   0.52778   0.84021
N          N       0.50313   0.47305   0.74687
C          C       0.52904   0.43275   0.72981
C          C       0.58910   0.44683   0.80862
C          C       0.62092   0.50319   0.90553
C          C       0.59305   0.54369   0.92143
C          C       0.61832   0.40352   0.78793
C          C       0.68838   0.42990   0.77990
C          C       0.71620   0.38922   0.76060
C          C       0.67311   0.32151   0.74464
C          C       0.60292   0.29404   0.75248
C          C       0.57614   0.33545   0.77597
C          C       0.79024   0.41717   0.76372
C          C       0.83363   0.47595   0.68358
N          N       0.90155   0.50248   0.69454
C          C       0.92996   0.47379   0.78248
C          C       0.88847   0.41475   0.86255
C          C       0.81870   0.38645   0.85269
C          C       0.55755   0.22220   0.73779
C          C       0.57503   0.17831   0.80667
N          N       0.53332   0.11272   0.79195
C          C       0.47345   0.08687   0.71246
C          C       0.45358   0.12871   0.64354
C          C       0.49593   0.19633   0.65512
C          C       0.42973   0.01545   0.70080
N          N       0.45403   0.98007   0.72749
C          C       0.00365   0.50459   0.79608
H          H       0.49734   0.90329   0.61713
H          H       0.43740   0.78414   0.61308
H          H       0.26494   0.78163   0.83022
H          H       0.32613   0.90075   0.83275
H          H       0.10586   0.52074   0.86137
H          H       0.22664   0.58340   0.86549
H          H       0.22348   0.72873   0.55898
H          H       0.09977   0.66579   0.55820
H          H       0.27883   0.58342   0.58215
H          H       0.34153   0.52499   0.60228
H          H       0.48788   0.67830   0.90491
H          H       0.42547   0.73583   0.88494
H          H       0.52525   0.61047   0.93739
H          H       0.50372   0.39088   0.65062
H          H       0.66630   0.51509   0.97197
H          H       0.72147   0.48219   0.79029
H          H       0.69447   0.29035   0.72368
H          H       0.52228   0.31439   0.78913
H          H       0.81353   0.50041   0.61120
H          H       0.90996   0.39141   0.93438
H          H       0.78705   0.34187   0.91915
H          H       0.62120   0.19600   0.87469
H          H       0.40647   0.10919   0.57854
H          H       0.48116   0.22830   0.59689
H          H       0.37786   0.99553   0.66321
H          H       0.02312   0.48401   0.88255
H          H       0.61754   0.58970   0.99576
N          N       0.33247   0.70292   0.71852
