data_crystal

_cell_length_a    37.34000
_cell_length_b    37.34000
_cell_length_c    7.22000
_cell_angle_alpha 90.00000
_cell_angle_beta  90.00000
_cell_angle_gamma 120.00000

_space_group_name_Hall 'P 1'
_space_group_name_H-M_alt 'P 1'

loop_
_symmetry_equiv_pos_as_xyz
 'x,y,z'

loop_
_atom_site_label
_atom_site_type_symbol
_atom_site_fract_x
_atom_site_fract_y
_atom_site_fract_z
C          C       0.55779   0.47003   0.23529
C          C       0.52997   0.08776   0.23529
C          C       0.91224   0.44221   0.23529
C          C       0.64746   0.29123   0.29346
C          C       0.70877   0.35623   0.29346
C          C       0.64377   0.35254   0.29346
N          N       0.68938   0.31427   0.29336
N          N       0.68573   0.37511   0.29336
N          N       0.62489   0.31062   0.29336
C          C       0.61890   0.37342   0.29119
C          C       0.62658   0.24548   0.29119
C          C       0.75452   0.38110   0.29119
C          C       0.63827   0.41679   0.29634
C          C       0.58321   0.22148   0.29634
C          C       0.77852   0.36173   0.29634
C          C       0.61485   0.43651   0.29172
C          C       0.56349   0.17834   0.29172
C          C       0.82166   0.38515   0.29172
C          C       0.57144   0.41313   0.28030
C          C       0.58687   0.15831   0.28030
C          C       0.84169   0.42856   0.28030
C          C       0.55213   0.36997   0.27867
C          C       0.63003   0.18216   0.27867
C          C       0.81784   0.44787   0.27867
C          C       0.57550   0.35021   0.28332
C          C       0.64979   0.22529   0.28332
C          C       0.77471   0.42450   0.28332
N          N       0.54580   0.43172   0.27496
N          N       0.56828   0.11408   0.27496
N          N       0.88592   0.45420   0.27496
C          C       0.52809   0.48537   0.23675
C          C       0.51463   0.04272   0.23675
C          C       0.95728   0.47191   0.23675
C          C       0.48635   0.45878   0.28238
C          C       0.54122   0.02757   0.28238
C          C       0.97243   0.51365   0.28238
C          C       0.45776   0.47309   0.28647
C          C       0.52691   0.98467   0.28647
C          C       0.01533   0.54224   0.28647
O          O       0.41596   0.44784   0.33954
O          O       0.55216   0.96812   0.33954
O          O       0.03188   0.58404   0.33954
C          C       0.60306   0.59378   0.23580
C          C       0.40622   0.00928   0.23580
C          C       0.99072   0.39694   0.23580
C          C       0.44161   0.52978   0.23167
C          C       0.47022   0.91183   0.23167
C          C       0.08817   0.55839   0.23167
C          C       0.35261   0.70877   0.15677
C          C       0.29123   0.64384   0.15677
C          C       0.35616   0.64739   0.15677
N          N       0.31068   0.68579   0.15691
N          N       0.31421   0.62489   0.15691
N          N       0.37511   0.68932   0.15691
C          C       0.38096   0.62644   0.16053
C          C       0.37356   0.75452   0.16053
C          C       0.24548   0.61904   0.16053
C          C       0.36151   0.58305   0.15741
C          C       0.41695   0.77846   0.15741
C          C       0.22154   0.63849   0.15741
C          C       0.38485   0.56327   0.16513
C          C       0.43673   0.82158   0.16513
C          C       0.17842   0.61515   0.16513
C          C       0.42824   0.58659   0.17765
C          C       0.41341   0.84165   0.17765
C          C       0.15835   0.57176   0.17765
C          C       0.44764   0.62976   0.17656
C          C       0.37024   0.81788   0.17656
C          C       0.18212   0.55236   0.17656
C          C       0.42436   0.64958   0.16885
C          C       0.35042   0.77478   0.16885
C          C       0.22522   0.57564   0.16885
N          N       0.45376   0.56792   0.18757
N          N       0.43208   0.88584   0.18757
N          N       0.11416   0.54624   0.18757
C          C       0.47124   0.51434   0.23550
C          C       0.48566   0.95690   0.23550
C          C       0.04310   0.52876   0.23550
C          C       0.51294   0.54077   0.18916
C          C       0.45923   0.97217   0.18916
C          C       0.02783   0.48706   0.18916
C          C       0.54171   0.52703   0.19565
C          C       0.47297   0.01468   0.19565
C          C       0.98532   0.45829   0.19565
O          O       0.58357   0.55370   0.15172
O          O       0.44630   0.02987   0.15172
O          O       0.97013   0.41643   0.15172
C          C       0.40274   0.40745   0.41104
C          C       0.59255   0.99529   0.41104
C          C       0.00471   0.59726   0.41104
H          H       0.58950   0.49105   0.19639
H          H       0.50895   0.09845   0.19639
H          H       0.90155   0.41050   0.19639
H          H       0.67160   0.43562   0.30462
H          H       0.56438   0.23598   0.30462
H          H       0.76402   0.32840   0.30462
H          H       0.63095   0.46985   0.29990
H          H       0.53015   0.16110   0.29990
H          H       0.83890   0.36905   0.29990
H          H       0.51874   0.35155   0.27209
H          H       0.64845   0.16719   0.27209
H          H       0.83281   0.48126   0.27209
H          H       0.55950   0.31676   0.28002
H          H       0.68324   0.24274   0.28002
H          H       0.75726   0.44050   0.28002
H          H       0.47640   0.42690   0.31432
H          H       0.57310   0.04950   0.31432
H          H       0.95050   0.52360   0.31432
H          H       0.61324   0.61794   0.12759
H          H       0.38206   0.99530   0.12759
H          H       0.00470   0.38676   0.12759
H          H       0.63081   0.59838   0.31218
H          H       0.40162   0.03243   0.31218
H          H       0.96757   0.36919   0.31218
H          H       0.58274   0.59806   0.33486
H          H       0.40194   0.98468   0.33486
H          H       0.01532   0.41726   0.33486
H          H       0.40985   0.50908   0.27081
H          H       0.49092   0.90077   0.27081
H          H       0.09923   0.59015   0.27081
H          H       0.32818   0.56426   0.14877
H          H       0.43574   0.76392   0.14877
H          H       0.23608   0.67182   0.14877
H          H       0.36870   0.52990   0.15879
H          H       0.47010   0.83880   0.15879
H          H       0.16120   0.63130   0.15879
H          H       0.48103   0.64813   0.18386
H          H       0.35187   0.83290   0.18386
H          H       0.16710   0.51897   0.18386
H          H       0.44042   0.68304   0.17055
H          H       0.31696   0.75738   0.17055
H          H       0.24262   0.55958   0.17055
H          H       0.52329   0.57227   0.14672
H          H       0.42773   0.95102   0.14672
H          H       0.04898   0.47671   0.14672
H          H       0.42386   0.40869   0.02104
H          H       0.59131   0.01517   0.02104
H          H       0.98483   0.57614   0.02104
H          H       0.40121   0.38611   0.30115
H          H       0.61389   0.01510   0.30115
H          H       0.98490   0.59879   0.30115
H          H       0.37131   0.39480   0.47042
H          H       0.60520   0.97651   0.47042
H          H       0.02349   0.62869   0.47042
C          C       0.55779   0.47003   0.73529
C          C       0.52997   0.08776   0.73529
C          C       0.91224   0.44221   0.73529
C          C       0.64746   0.29123   0.79345
C          C       0.70877   0.35623   0.79345
C          C       0.64377   0.35254   0.79345
N          N       0.68938   0.31427   0.79336
N          N       0.68573   0.37511   0.79336
N          N       0.62489   0.31062   0.79336
C          C       0.61890   0.37342   0.79119
C          C       0.62658   0.24548   0.79119
C          C       0.75452   0.38110   0.79119
C          C       0.63827   0.41679   0.79634
C          C       0.58321   0.22148   0.79634
C          C       0.77852   0.36173   0.79634
C          C       0.61485   0.43651   0.79172
C          C       0.56349   0.17834   0.79172
C          C       0.82166   0.38515   0.79172
C          C       0.57144   0.41313   0.78030
C          C       0.58687   0.15831   0.78030
C          C       0.84169   0.42856   0.78030
C          C       0.55213   0.36997   0.77867
C          C       0.63003   0.18216   0.77867
C          C       0.81784   0.44787   0.77867
C          C       0.57550   0.35021   0.78332
C          C       0.64979   0.22529   0.78332
C          C       0.77471   0.42450   0.78332
N          N       0.54580   0.43172   0.77495
N          N       0.56828   0.11408   0.77495
N          N       0.88592   0.45420   0.77495
C          C       0.52809   0.48537   0.73674
C          C       0.51463   0.04272   0.73674
C          C       0.95728   0.47191   0.73674
C          C       0.48635   0.45878   0.78238
C          C       0.54122   0.02757   0.78238
C          C       0.97243   0.51365   0.78238
C          C       0.45776   0.47309   0.78647
C          C       0.52691   0.98467   0.78647
C          C       0.01533   0.54224   0.78647
O          O       0.41596   0.44784   0.83954
O          O       0.55216   0.96812   0.83954
O          O       0.03188   0.58404   0.83954
C          C       0.60306   0.59378   0.73579
C          C       0.40622   0.00928   0.73579
C          C       0.99072   0.39694   0.73579
C          C       0.44161   0.52978   0.73167
C          C       0.47022   0.91183   0.73167
C          C       0.08817   0.55839   0.73167
C          C       0.35261   0.70877   0.65677
C          C       0.29123   0.64384   0.65677
C          C       0.35616   0.64739   0.65677
N          N       0.31068   0.68579   0.65691
N          N       0.31421   0.62489   0.65691
N          N       0.37511   0.68932   0.65691
C          C       0.38096   0.62644   0.66053
C          C       0.37356   0.75452   0.66053
C          C       0.24548   0.61904   0.66053
C          C       0.36151   0.58305   0.65741
C          C       0.41695   0.77846   0.65741
C          C       0.22154   0.63849   0.65741
C          C       0.38485   0.56327   0.66513
C          C       0.43673   0.82158   0.66513
C          C       0.17842   0.61515   0.66513
C          C       0.42824   0.58659   0.67765
C          C       0.41341   0.84165   0.67765
C          C       0.15835   0.57176   0.67765
C          C       0.44764   0.62976   0.67657
C          C       0.37024   0.81788   0.67657
C          C       0.18212   0.55236   0.67657
C          C       0.42436   0.64958   0.66885
C          C       0.35042   0.77478   0.66885
C          C       0.22522   0.57564   0.66885
N          N       0.45376   0.56792   0.68756
N          N       0.43208   0.88584   0.68756
N          N       0.11416   0.54624   0.68756
C          C       0.47124   0.51434   0.73550
C          C       0.48566   0.95690   0.73550
C          C       0.04310   0.52876   0.73550
C          C       0.51294   0.54077   0.68916
C          C       0.45923   0.97217   0.68916
C          C       0.02783   0.48706   0.68916
C          C       0.54171   0.52703   0.69566
C          C       0.47297   0.01468   0.69566
C          C       0.98532   0.45829   0.69566
O          O       0.58357   0.55370   0.65172
O          O       0.44630   0.02987   0.65172
O          O       0.97013   0.41643   0.65172
C          C       0.40274   0.40745   0.91104
C          C       0.59255   0.99529   0.91104
C          C       0.00471   0.59726   0.91104
H          H       0.58950   0.49105   0.69639
H          H       0.50895   0.09845   0.69639
H          H       0.90155   0.41050   0.69639
H          H       0.67160   0.43562   0.80461
H          H       0.56438   0.23598   0.80461
H          H       0.76402   0.32840   0.80461
H          H       0.63095   0.46985   0.79990
H          H       0.53015   0.16110   0.79990
H          H       0.83890   0.36905   0.79990
H          H       0.51874   0.35155   0.77209
H          H       0.64845   0.16719   0.77209
H          H       0.83281   0.48126   0.77209
H          H       0.55950   0.31676   0.78002
H          H       0.68324   0.24274   0.78002
H          H       0.75726   0.44050   0.78002
H          H       0.47640   0.42690   0.81431
H          H       0.57310   0.04950   0.81431
H          H       0.95050   0.52360   0.81431
H          H       0.61324   0.61794   0.62758
H          H       0.38206   0.99530   0.62758
H          H       0.00470   0.38676   0.62758
H          H       0.63081   0.59838   0.81218
H          H       0.40162   0.03243   0.81218
H          H       0.96757   0.36919   0.81218
H          H       0.58274   0.59806   0.83486
H          H       0.40194   0.98468   0.83486
H          H       0.01532   0.41726   0.83486
H          H       0.40985   0.50908   0.77082
H          H       0.49092   0.90077   0.77082
H          H       0.09923   0.59015   0.77082
H          H       0.32818   0.56426   0.64877
H          H       0.43574   0.76392   0.64877
H          H       0.23608   0.67182   0.64877
H          H       0.36870   0.52990   0.65878
H          H       0.47010   0.83880   0.65878
H          H       0.16120   0.63130   0.65878
H          H       0.48103   0.64813   0.68386
H          H       0.35187   0.83290   0.68386
H          H       0.16710   0.51897   0.68386
H          H       0.44042   0.68304   0.67054
H          H       0.31696   0.75738   0.67054
H          H       0.24262   0.55958   0.67054
H          H       0.52329   0.57227   0.64672
H          H       0.42773   0.95102   0.64672
H          H       0.04898   0.47671   0.64672
H          H       0.42386   0.40869   0.52104
H          H       0.59131   0.01517   0.52104
H          H       0.98483   0.57614   0.52104
H          H       0.40121   0.38611   0.80115
H          H       0.61389   0.01510   0.80115
H          H       0.98490   0.59879   0.80115
H          H       0.37131   0.39480   0.97042
H          H       0.60520   0.97651   0.97042
H          H       0.02349   0.62869   0.97042
