data_crystal

_cell_length_a    37.41000
_cell_length_b    37.00000
_cell_length_c    7.32000
_cell_angle_alpha 90.00000
_cell_angle_beta  90.00000
_cell_angle_gamma 120.00000

_space_group_name_Hall 'P 1'
_space_group_name_H-M_alt 'P 1'

loop_
_symmetry_equiv_pos_as_xyz
 'x,y,z'

loop_
_atom_site_label
_atom_site_type_symbol
_atom_site_fract_x
_atom_site_fract_y
_atom_site_fract_z
C          C       0.55852   0.47073   0.22417
C          C       0.52927   0.08779   0.22417
C          C       0.91221   0.44148   0.22417
C          C       0.44148   0.52927   0.22417
C          C       0.47073   0.91221   0.22417
C          C       0.08779   0.55852   0.22417
C          C       0.64735   0.29129   0.25129
C          C       0.70871   0.35606   0.25129
C          C       0.64394   0.35265   0.25129
C          C       0.35265   0.70871   0.25129
C          C       0.29129   0.64394   0.25129
C          C       0.35606   0.64735   0.25129
N          N       0.68922   0.31417   0.25129
N          N       0.68583   0.37505   0.25129
N          N       0.62495   0.31078   0.25129
N          N       0.31078   0.68583   0.25129
N          N       0.31417   0.62495   0.25129
N          N       0.37505   0.68922   0.25129
C          C       0.61924   0.37364   0.25198
C          C       0.62636   0.24560   0.25198
C          C       0.75440   0.38076   0.25198
C          C       0.38076   0.62636   0.25198
C          C       0.37364   0.75440   0.25198
C          C       0.24560   0.61924   0.25198
C          C       0.63871   0.41692   0.26136
C          C       0.58308   0.22179   0.26136
C          C       0.77821   0.36129   0.26136
C          C       0.36129   0.58308   0.26136
C          C       0.41692   0.77821   0.26136
C          C       0.22179   0.63871   0.26136
C          C       0.61543   0.43672   0.26283
C          C       0.56328   0.17871   0.26283
C          C       0.82129   0.38457   0.26283
C          C       0.38457   0.56328   0.26283
C          C       0.43672   0.82129   0.26283
C          C       0.17871   0.61543   0.26283
C          C       0.57206   0.41354   0.25331
C          C       0.58646   0.15852   0.25331
C          C       0.84148   0.42794   0.25331
C          C       0.42794   0.58646   0.25331
C          C       0.41354   0.84148   0.25331
C          C       0.15852   0.57206   0.25331
C          C       0.55267   0.37047   0.24618
C          C       0.62953   0.18220   0.24618
C          C       0.81780   0.44733   0.24618
C          C       0.44733   0.62953   0.24618
C          C       0.37047   0.81780   0.24618
C          C       0.18220   0.55267   0.24618
C          C       0.57590   0.35062   0.24479
C          C       0.64938   0.22528   0.24479
C          C       0.77472   0.42410   0.24479
C          C       0.42410   0.64938   0.24479
C          C       0.35062   0.77472   0.24479
C          C       0.22528   0.57590   0.24479
N          N       0.54656   0.43222   0.25708
N          N       0.56778   0.11434   0.25708
N          N       0.88566   0.45344   0.25708
N          N       0.45344   0.56778   0.25708
N          N       0.43222   0.88566   0.25708
N          N       0.11434   0.54656   0.25708
C          C       0.52895   0.48613   0.23581
C          C       0.51387   0.04282   0.23581
C          C       0.95718   0.47105   0.23581
C          C       0.47105   0.51387   0.23581
C          C       0.48613   0.95718   0.23581
C          C       0.04282   0.52895   0.23581
C          C       0.48632   0.45784   0.23940
C          C       0.54216   0.02848   0.23940
C          C       0.97152   0.51368   0.23940
C          C       0.51368   0.54216   0.23940
C          C       0.45784   0.97152   0.23940
C          C       0.02848   0.48632   0.23940
C          C       0.45731   0.47115   0.24300
C          C       0.52885   0.98616   0.24300
C          C       0.01384   0.54269   0.24300
C          C       0.54269   0.52885   0.24300
C          C       0.47115   0.01384   0.24300
C          C       0.98616   0.45731   0.24300
H          H       0.58992   0.49172   0.18280
H          H       0.50828   0.09820   0.18280
H          H       0.90180   0.41008   0.18280
H          H       0.41008   0.50828   0.18280
H          H       0.49172   0.90180   0.18280
H          H       0.09820   0.58992   0.18280
H          H       0.67200   0.43559   0.26916
H          H       0.56441   0.23641   0.26916
H          H       0.76359   0.32800   0.26916
H          H       0.32800   0.56441   0.26916
H          H       0.43559   0.76359   0.26916
H          H       0.23641   0.67200   0.26916
H          H       0.63160   0.46995   0.27491
H          H       0.53005   0.16165   0.27491
H          H       0.83835   0.36840   0.27491
H          H       0.36840   0.53005   0.27491
H          H       0.46995   0.83835   0.27491
H          H       0.16165   0.63160   0.27491
H          H       0.51932   0.35218   0.24089
H          H       0.64782   0.16714   0.24089
H          H       0.83286   0.48068   0.24089
H          H       0.48068   0.64782   0.24089
H          H       0.35218   0.83286   0.24089
H          H       0.16714   0.51932   0.24089
H          H       0.55983   0.31725   0.23815
H          H       0.68275   0.24258   0.23815
H          H       0.75742   0.44017   0.23815
H          H       0.44017   0.68275   0.23815
H          H       0.31725   0.75742   0.23815
H          H       0.24258   0.55983   0.23815
H          H       0.47540   0.42500   0.23864
H          H       0.57500   0.05040   0.23864
H          H       0.94960   0.52460   0.23864
H          H       0.52460   0.57500   0.23864
H          H       0.42500   0.94960   0.23864
H          H       0.05040   0.47540   0.23864
C          C       0.41225   0.43909   0.25993
C          C       0.56091   0.97316   0.25993
C          C       0.02684   0.58775   0.25993
C          C       0.58775   0.56091   0.25993
C          C       0.43909   0.02684   0.25993
C          C       0.97316   0.41225   0.25993
H          H       0.40829   0.41051   0.32519
H          H       0.58949   0.99778   0.32519
H          H       0.00222   0.59171   0.32519
H          H       0.59171   0.58949   0.32519
H          H       0.41051   0.00222   0.32519
H          H       0.99778   0.40829   0.32519
H          H       0.39752   0.43072   0.12463
H          H       0.56928   0.96680   0.12463
H          H       0.03320   0.60248   0.12463
H          H       0.60248   0.56928   0.12463
H          H       0.43072   0.03320   0.12463
H          H       0.96680   0.39752   0.12463
H          H       0.39547   0.45061   0.34390
H          H       0.54939   0.94486   0.34390
H          H       0.05514   0.60453   0.34390
H          H       0.60453   0.54939   0.34390
H          H       0.45061   0.05514   0.34390
H          H       0.94486   0.39547   0.34390
C          C       0.55852   0.47073   0.72416
C          C       0.52927   0.08779   0.72416
C          C       0.91221   0.44148   0.72416
C          C       0.44148   0.52927   0.72416
C          C       0.47073   0.91221   0.72416
C          C       0.08779   0.55852   0.72416
C          C       0.64735   0.29129   0.75129
C          C       0.70871   0.35606   0.75129
C          C       0.64394   0.35265   0.75129
C          C       0.35265   0.70871   0.75129
C          C       0.29129   0.64394   0.75129
C          C       0.35606   0.64735   0.75129
N          N       0.68922   0.31417   0.75130
N          N       0.68583   0.37505   0.75130
N          N       0.62495   0.31078   0.75130
N          N       0.31078   0.68583   0.75130
N          N       0.31417   0.62495   0.75130
N          N       0.37505   0.68922   0.75130
C          C       0.61924   0.37364   0.75198
C          C       0.62636   0.24560   0.75198
C          C       0.75440   0.38076   0.75198
C          C       0.38076   0.62636   0.75198
C          C       0.37364   0.75440   0.75198
C          C       0.24560   0.61924   0.75198
C          C       0.63871   0.41692   0.76136
C          C       0.58308   0.22179   0.76136
C          C       0.77821   0.36129   0.76136
C          C       0.36129   0.58308   0.76136
C          C       0.41692   0.77821   0.76136
C          C       0.22179   0.63871   0.76136
C          C       0.61543   0.43672   0.76283
C          C       0.56328   0.17871   0.76283
C          C       0.82129   0.38457   0.76283
C          C       0.38457   0.56328   0.76283
C          C       0.43672   0.82129   0.76283
C          C       0.17871   0.61543   0.76283
C          C       0.57206   0.41354   0.75331
C          C       0.58646   0.15852   0.75331
C          C       0.84148   0.42794   0.75331
C          C       0.42794   0.58646   0.75331
C          C       0.41354   0.84148   0.75331
C          C       0.15852   0.57206   0.75331
C          C       0.55267   0.37047   0.74618
C          C       0.62953   0.18220   0.74618
C          C       0.81780   0.44733   0.74618
C          C       0.44733   0.62953   0.74618
C          C       0.37047   0.81780   0.74618
C          C       0.18220   0.55267   0.74618
C          C       0.57590   0.35062   0.74479
C          C       0.64938   0.22528   0.74479
C          C       0.77472   0.42410   0.74479
C          C       0.42410   0.64938   0.74479
C          C       0.35062   0.77472   0.74479
C          C       0.22528   0.57590   0.74479
N          N       0.54656   0.43222   0.75708
N          N       0.56778   0.11434   0.75708
N          N       0.88566   0.45344   0.75708
N          N       0.45344   0.56778   0.75708
N          N       0.43222   0.88566   0.75708
N          N       0.11434   0.54656   0.75708
C          C       0.52895   0.48613   0.73581
C          C       0.51387   0.04282   0.73581
C          C       0.95718   0.47105   0.73581
C          C       0.47105   0.51387   0.73581
C          C       0.48613   0.95718   0.73581
C          C       0.04282   0.52895   0.73581
C          C       0.48632   0.45784   0.73940
C          C       0.54216   0.02848   0.73940
C          C       0.97152   0.51368   0.73940
C          C       0.51368   0.54216   0.73940
C          C       0.45784   0.97152   0.73940
C          C       0.02848   0.48632   0.73940
C          C       0.45731   0.47115   0.74300
C          C       0.52885   0.98616   0.74300
C          C       0.01384   0.54269   0.74300
C          C       0.54269   0.52885   0.74300
C          C       0.47115   0.01384   0.74300
C          C       0.98616   0.45731   0.74300
H          H       0.58992   0.49172   0.68280
H          H       0.50828   0.09820   0.68280
H          H       0.90180   0.41008   0.68280
H          H       0.41008   0.50828   0.68280
H          H       0.49172   0.90180   0.68280
H          H       0.09820   0.58992   0.68280
H          H       0.67200   0.43559   0.76916
H          H       0.56441   0.23641   0.76916
H          H       0.76359   0.32800   0.76916
H          H       0.32800   0.56441   0.76916
H          H       0.43559   0.76359   0.76916
H          H       0.23641   0.67200   0.76916
H          H       0.63160   0.46995   0.77491
H          H       0.53005   0.16165   0.77491
H          H       0.83835   0.36840   0.77491
H          H       0.36840   0.53005   0.77491
H          H       0.46995   0.83835   0.77491
H          H       0.16165   0.63160   0.77491
H          H       0.51932   0.35218   0.74089
H          H       0.64782   0.16714   0.74089
H          H       0.83286   0.48068   0.74089
H          H       0.48068   0.64782   0.74089
H          H       0.35218   0.83286   0.74089
H          H       0.16714   0.51932   0.74089
H          H       0.55983   0.31725   0.73815
H          H       0.68275   0.24258   0.73815
H          H       0.75742   0.44017   0.73815
H          H       0.44017   0.68275   0.73815
H          H       0.31725   0.75742   0.73815
H          H       0.24258   0.55983   0.73815
H          H       0.47540   0.42500   0.73864
H          H       0.57500   0.05040   0.73864
H          H       0.94960   0.52460   0.73864
H          H       0.52460   0.57500   0.73864
H          H       0.42500   0.94960   0.73864
H          H       0.05040   0.47540   0.73864
C          C       0.41225   0.43909   0.75993
C          C       0.56091   0.97316   0.75993
C          C       0.02684   0.58775   0.75993
C          C       0.58775   0.56091   0.75993
C          C       0.43909   0.02684   0.75993
C          C       0.97316   0.41225   0.75993
H          H       0.40829   0.41051   0.82519
H          H       0.58949   0.99778   0.82519
H          H       0.00222   0.59171   0.82519
H          H       0.59171   0.58949   0.82519
H          H       0.41051   0.00222   0.82519
H          H       0.99778   0.40829   0.82519
H          H       0.39752   0.43072   0.62463
H          H       0.56928   0.96680   0.62463
H          H       0.03320   0.60248   0.62463
H          H       0.60248   0.56928   0.62463
H          H       0.43072   0.03320   0.62463
H          H       0.96680   0.39752   0.62463
H          H       0.39547   0.45061   0.84390
H          H       0.54939   0.94486   0.84390
H          H       0.05514   0.60453   0.84390
H          H       0.60453   0.54939   0.84390
H          H       0.45061   0.05514   0.84390
H          H       0.94486   0.39547   0.84390
