data_crystal

_cell_length_a    37.63000
_cell_length_b    37.00000
_cell_length_c    7.44000
_cell_angle_alpha 90.00000
_cell_angle_beta  90.00000
_cell_angle_gamma 120.00000

_space_group_name_Hall 'P 1'
_space_group_name_H-M_alt 'P 1'

loop_
_symmetry_equiv_pos_as_xyz
 'x,y,z'

loop_
_atom_site_label
_atom_site_type_symbol
_atom_site_fract_x
_atom_site_fract_y
_atom_site_fract_z
C          C       0.55828   0.47083   0.26243
C          C       0.52917   0.08745   0.26243
C          C       0.91255   0.44172   0.26243
C          C       0.44172   0.52917   0.26243
C          C       0.47083   0.91255   0.26243
C          C       0.08745   0.55828   0.26243
C          C       0.64692   0.28998   0.24000
C          C       0.71002   0.35694   0.24000
C          C       0.64306   0.35308   0.24000
C          C       0.35308   0.71002   0.24000
C          C       0.28998   0.64306   0.24000
C          C       0.35694   0.64692   0.24000
C          C       0.68998   0.31383   0.23999
C          C       0.68617   0.37615   0.23999
C          C       0.62385   0.31002   0.23999
C          C       0.31002   0.68617   0.23999
C          C       0.31383   0.62385   0.23999
C          C       0.37615   0.68998   0.23999
C          C       0.61817   0.37394   0.24019
C          C       0.62606   0.24423   0.24019
C          C       0.75577   0.38183   0.24019
C          C       0.38183   0.62606   0.24019
C          C       0.37394   0.75577   0.24019
C          C       0.24423   0.61817   0.24019
C          C       0.63242   0.41185   0.32345
C          C       0.58815   0.22057   0.32345
C          C       0.77943   0.36758   0.32345
C          C       0.36758   0.58815   0.32345
C          C       0.41185   0.77943   0.32345
C          C       0.22057   0.63242   0.32345
C          C       0.60931   0.43158   0.32234
C          C       0.56842   0.17773   0.32234
C          C       0.82227   0.39069   0.32234
C          C       0.39069   0.56842   0.32234
C          C       0.43158   0.82227   0.32234
C          C       0.17773   0.60931   0.32234
C          C       0.57112   0.41361   0.23903
C          C       0.58639   0.15751   0.23903
C          C       0.84249   0.42888   0.23903
C          C       0.42888   0.58639   0.23903
C          C       0.41361   0.84249   0.23903
C          C       0.15751   0.57112   0.23903
C          C       0.55641   0.37555   0.15957
C          C       0.62445   0.18086   0.15957
C          C       0.81914   0.44359   0.15957
C          C       0.44359   0.62445   0.15957
C          C       0.37555   0.81914   0.15957
C          C       0.18086   0.55641   0.15957
C          C       0.57979   0.35612   0.15793
C          C       0.64388   0.22367   0.15793
C          C       0.77633   0.42021   0.15793
C          C       0.42021   0.64388   0.15793
C          C       0.35612   0.77633   0.15793
C          C       0.22367   0.57979   0.15793
N          N       0.54582   0.43222   0.23691
N          N       0.56778   0.11360   0.23691
N          N       0.88640   0.45418   0.23691
N          N       0.45418   0.56778   0.23691
N          N       0.43222   0.88640   0.23691
N          N       0.11360   0.54582   0.23691
C          C       0.52880   0.48619   0.25937
C          C       0.51381   0.04261   0.25937
C          C       0.95739   0.47120   0.25937
C          C       0.47120   0.51381   0.25937
C          C       0.48619   0.95739   0.25937
C          C       0.04261   0.52880   0.25937
C          C       0.48640   0.45808   0.25820
C          C       0.54192   0.02832   0.25820
C          C       0.97168   0.51360   0.25820
C          C       0.51360   0.54192   0.25820
C          C       0.45808   0.97168   0.25820
C          C       0.02832   0.48640   0.25820
C          C       0.45753   0.47131   0.25822
C          C       0.52869   0.98622   0.25822
C          C       0.01378   0.54247   0.25822
C          C       0.54247   0.52869   0.25822
C          C       0.47131   0.01378   0.25822
C          C       0.98622   0.45753   0.25822
H          H       0.59050   0.49225   0.28169
H          H       0.50775   0.09825   0.28169
H          H       0.90175   0.40950   0.28169
H          H       0.40950   0.50775   0.28169
H          H       0.49225   0.90175   0.28169
H          H       0.09825   0.59050   0.28169
H          H       0.66093   0.42588   0.39411
H          H       0.57412   0.23505   0.39411
H          H       0.76495   0.33907   0.39411
H          H       0.33907   0.57412   0.39411
H          H       0.42588   0.76495   0.39411
H          H       0.23505   0.66093   0.39411
H          H       0.62091   0.46006   0.39174
H          H       0.53994   0.16085   0.39174
H          H       0.83915   0.37909   0.39174
H          H       0.37909   0.53994   0.39174
H          H       0.46006   0.83915   0.39174
H          H       0.16085   0.62091   0.39174
H          H       0.52704   0.36130   0.09510
H          H       0.63870   0.16574   0.09510
H          H       0.83426   0.47296   0.09510
H          H       0.47296   0.63870   0.09510
H          H       0.36130   0.83426   0.09510
H          H       0.16574   0.52704   0.09510
H          H       0.56804   0.32758   0.08854
H          H       0.67242   0.24046   0.08854
H          H       0.75954   0.43196   0.08854
H          H       0.43196   0.67242   0.08854
H          H       0.32758   0.75954   0.08854
H          H       0.24046   0.56804   0.08854
H          H       0.47560   0.42545   0.25882
H          H       0.57455   0.05015   0.25882
H          H       0.94985   0.52440   0.25882
H          H       0.52440   0.57455   0.25882
H          H       0.42545   0.94985   0.25882
H          H       0.05015   0.47560   0.25882
C          C       0.41253   0.43957   0.25601
C          C       0.56043   0.97296   0.25601
C          C       0.02704   0.58747   0.25601
C          C       0.58747   0.56043   0.25601
C          C       0.43957   0.02704   0.25601
C          C       0.97296   0.41253   0.25601
H          H       0.70801   0.29876   0.24008
H          H       0.70124   0.40925   0.24008
H          H       0.59075   0.29199   0.24008
H          H       0.29199   0.70124   0.24008
H          H       0.29876   0.59075   0.24008
H          H       0.40925   0.70801   0.24008
H          H       0.40730   0.40790   0.24364
H          H       0.59210   0.99940   0.24364
H          H       0.00060   0.59270   0.24364
H          H       0.59270   0.59210   0.24364
H          H       0.40790   0.00060   0.24364
H          H       0.99940   0.40730   0.24364
H          H       0.39707   0.44531   0.14894
H          H       0.55469   0.95176   0.14894
H          H       0.04824   0.60293   0.14894
H          H       0.60293   0.55469   0.14894
H          H       0.44531   0.04824   0.14894
H          H       0.95176   0.39707   0.14894
H          H       0.39769   0.44132   0.37418
H          H       0.55868   0.95637   0.37418
H          H       0.04363   0.60231   0.37418
H          H       0.60231   0.55868   0.37418
H          H       0.44132   0.04363   0.37418
H          H       0.95637   0.39769   0.37418
C          C       0.55828   0.47083   0.76243
C          C       0.52917   0.08745   0.76243
C          C       0.91255   0.44172   0.76243
C          C       0.44172   0.52917   0.76243
C          C       0.47083   0.91255   0.76243
C          C       0.08745   0.55828   0.76243
C          C       0.64692   0.28998   0.74000
C          C       0.71002   0.35694   0.74000
C          C       0.64306   0.35308   0.74000
C          C       0.35308   0.71002   0.74000
C          C       0.28998   0.64306   0.74000
C          C       0.35694   0.64692   0.74000
C          C       0.68998   0.31383   0.73999
C          C       0.68617   0.37615   0.73999
C          C       0.62385   0.31002   0.73999
C          C       0.31002   0.68617   0.73999
C          C       0.31383   0.62385   0.73999
C          C       0.37615   0.68998   0.73999
C          C       0.61817   0.37394   0.74019
C          C       0.62606   0.24423   0.74019
C          C       0.75577   0.38183   0.74019
C          C       0.38183   0.62606   0.74019
C          C       0.37394   0.75577   0.74019
C          C       0.24423   0.61817   0.74019
C          C       0.63242   0.41185   0.82345
C          C       0.58815   0.22057   0.82345
C          C       0.77943   0.36758   0.82345
C          C       0.36758   0.58815   0.82345
C          C       0.41185   0.77943   0.82345
C          C       0.22057   0.63242   0.82345
C          C       0.60931   0.43158   0.82234
C          C       0.56842   0.17773   0.82234
C          C       0.82227   0.39069   0.82234
C          C       0.39069   0.56842   0.82234
C          C       0.43158   0.82227   0.82234
C          C       0.17773   0.60931   0.82234
C          C       0.57112   0.41361   0.73903
C          C       0.58639   0.15751   0.73903
C          C       0.84249   0.42888   0.73903
C          C       0.42888   0.58639   0.73903
C          C       0.41361   0.84249   0.73903
C          C       0.15751   0.57112   0.73903
C          C       0.55641   0.37555   0.65957
C          C       0.62445   0.18086   0.65957
C          C       0.81914   0.44359   0.65957
C          C       0.44359   0.62445   0.65957
C          C       0.37555   0.81914   0.65957
C          C       0.18086   0.55641   0.65957
C          C       0.57979   0.35612   0.65792
C          C       0.64388   0.22367   0.65792
C          C       0.77633   0.42021   0.65792
C          C       0.42021   0.64388   0.65792
C          C       0.35612   0.77633   0.65792
C          C       0.22367   0.57979   0.65792
N          N       0.54582   0.43222   0.73690
N          N       0.56778   0.11360   0.73690
N          N       0.88640   0.45418   0.73690
N          N       0.45418   0.56778   0.73690
N          N       0.43222   0.88640   0.73690
N          N       0.11360   0.54582   0.73690
C          C       0.52880   0.48619   0.75936
C          C       0.51381   0.04261   0.75936
C          C       0.95739   0.47120   0.75936
C          C       0.47120   0.51381   0.75936
C          C       0.48619   0.95739   0.75936
C          C       0.04261   0.52880   0.75936
C          C       0.48640   0.45808   0.75820
C          C       0.54192   0.02832   0.75820
C          C       0.97168   0.51360   0.75820
C          C       0.51360   0.54192   0.75820
C          C       0.45808   0.97168   0.75820
C          C       0.02832   0.48640   0.75820
C          C       0.45753   0.47131   0.75823
C          C       0.52869   0.98622   0.75823
C          C       0.01378   0.54247   0.75823
C          C       0.54247   0.52869   0.75823
C          C       0.47131   0.01378   0.75823
C          C       0.98622   0.45753   0.75823
H          H       0.59050   0.49225   0.78169
H          H       0.50775   0.09825   0.78169
H          H       0.90175   0.40950   0.78169
H          H       0.40950   0.50775   0.78169
H          H       0.49225   0.90175   0.78169
H          H       0.09825   0.59050   0.78169
H          H       0.66093   0.42588   0.89411
H          H       0.57412   0.23505   0.89411
H          H       0.76495   0.33907   0.89411
H          H       0.33907   0.57412   0.89411
H          H       0.42588   0.76495   0.89411
H          H       0.23505   0.66093   0.89411
H          H       0.62091   0.46006   0.89174
H          H       0.53994   0.16085   0.89174
H          H       0.83915   0.37909   0.89174
H          H       0.37909   0.53994   0.89174
H          H       0.46006   0.83915   0.89174
H          H       0.16085   0.62091   0.89174
H          H       0.52704   0.36130   0.59510
H          H       0.63870   0.16574   0.59510
H          H       0.83426   0.47296   0.59510
H          H       0.47296   0.63870   0.59510
H          H       0.36130   0.83426   0.59510
H          H       0.16574   0.52704   0.59510
H          H       0.56804   0.32758   0.58854
H          H       0.67242   0.24046   0.58854
H          H       0.75954   0.43196   0.58854
H          H       0.43196   0.67242   0.58854
H          H       0.32758   0.75954   0.58854
H          H       0.24046   0.56804   0.58854
H          H       0.47560   0.42545   0.75882
H          H       0.57455   0.05015   0.75882
H          H       0.94985   0.52440   0.75882
H          H       0.52440   0.57455   0.75882
H          H       0.42545   0.94985   0.75882
H          H       0.05015   0.47560   0.75882
C          C       0.41253   0.43957   0.75601
C          C       0.56043   0.97296   0.75601
C          C       0.02704   0.58747   0.75601
C          C       0.58747   0.56043   0.75601
C          C       0.43957   0.02704   0.75601
C          C       0.97296   0.41253   0.75601
H          H       0.70801   0.29876   0.74007
H          H       0.70124   0.40925   0.74007
H          H       0.59075   0.29199   0.74007
H          H       0.29199   0.70124   0.74007
H          H       0.29876   0.59075   0.74007
H          H       0.40925   0.70801   0.74007
H          H       0.40730   0.40790   0.74364
H          H       0.59210   0.99940   0.74364
H          H       0.00060   0.59270   0.74364
H          H       0.59270   0.59210   0.74364
H          H       0.40790   0.00060   0.74364
H          H       0.99940   0.40730   0.74364
H          H       0.39707   0.44531   0.64894
H          H       0.55469   0.95176   0.64894
H          H       0.04824   0.60293   0.64894
H          H       0.60293   0.55469   0.64894
H          H       0.44531   0.04824   0.64894
H          H       0.95176   0.39707   0.64894
H          H       0.39769   0.44132   0.87418
H          H       0.55868   0.95637   0.87418
H          H       0.04363   0.60231   0.87418
H          H       0.60231   0.55868   0.87418
H          H       0.44132   0.04363   0.87418
H          H       0.95637   0.39769   0.87418
