data_crystal

_cell_length_a    23.28300
_cell_length_b    23.28300
_cell_length_c    6.87400
_cell_angle_alpha 90.00000
_cell_angle_beta  90.00000
_cell_angle_gamma 120.00000

_space_group_name_Hall 'P 1'
_space_group_name_H-M_alt 'P 1'

loop_
_symmetry_equiv_pos_as_xyz
 'x,y,z'

loop_
_atom_site_label
_atom_site_type_symbol
_atom_site_fract_x
_atom_site_fract_y
_atom_site_fract_z
N          N       0.04130   0.06666   0.40394
N          N       0.93334   0.97464   0.40394
N          N       0.02536   0.95870   0.40394
C          C       0.06689   0.02538   0.40394
C          C       0.97462   0.04151   0.40394
C          C       0.95849   0.93311   0.40394
C          C       0.13899   0.05185   0.40394
C          C       0.94815   0.08714   0.40394
C          C       0.91286   0.86101   0.40394
C          C       0.18240   0.11671   0.40394
C          C       0.88329   0.06569   0.40394
C          C       0.93431   0.81760   0.40394
C          C       0.25522   0.14571   0.40394
C          C       0.85429   0.10951   0.40394
C          C       0.89049   0.74478   0.40394
C          C       0.29409   0.21497   0.40394
C          C       0.78503   0.07912   0.40394
C          C       0.92088   0.70591   0.40394
C          C       0.36334   0.24617   0.40394
C          C       0.75383   0.11717   0.40394
C          C       0.88283   0.63666   0.40394
C          C       0.39465   0.20832   0.40394
C          C       0.79168   0.18633   0.40394
C          C       0.81367   0.60535   0.40394
C          C       0.35644   0.13912   0.40394
C          C       0.86088   0.21732   0.40394
C          C       0.78268   0.64356   0.40394
C          C       0.28705   0.10756   0.40394
C          C       0.89244   0.17949   0.40394
C          C       0.82051   0.71295   0.40394
C          C       0.46597   0.24062   0.40394
C          C       0.75938   0.22535   0.40394
C          C       0.77465   0.53403   0.40394
C          C       0.52586   0.26810   0.40394
C          C       0.73190   0.25776   0.40394
C          C       0.74224   0.47414   0.40394
C          C       0.59722   0.30114   0.40394
C          C       0.69886   0.29608   0.40394
C          C       0.70392   0.40278   0.40394
C          C       0.63453   0.37052   0.40394
C          C       0.62948   0.26401   0.40394
C          C       0.73599   0.36547   0.40394
F          F       0.78851   0.74816   0.40394
F          F       0.25184   0.04035   0.40394
F          F       0.95965   0.21149   0.40394
H          H       0.15950   0.01648   0.40394
H          H       0.98352   0.14302   0.40394
H          H       0.85698   0.84050   0.40394
H          H       0.16405   0.15385   0.40394
H          H       0.84615   0.01020   0.40394
H          H       0.98980   0.83595   0.40394
H          H       0.26866   0.24599   0.40394
H          H       0.75401   0.02267   0.40394
H          H       0.97733   0.73134   0.40394
H          H       0.39435   0.30262   0.40394
H          H       0.69738   0.09173   0.40394
H          H       0.90827   0.60565   0.40394
H          H       0.38171   0.10796   0.40394
H          H       0.89204   0.27375   0.40394
H          H       0.72625   0.61829   0.40394
H          H       0.60843   0.40090   0.40394
H          H       0.59910   0.20753   0.40394
H          H       0.79247   0.39157   0.40394
N          N       0.04130   0.06666   0.90394
N          N       0.93334   0.97464   0.90394
N          N       0.02536   0.95870   0.90394
C          C       0.06689   0.02538   0.90394
C          C       0.97462   0.04151   0.90394
C          C       0.95849   0.93311   0.90394
C          C       0.13899   0.05185   0.90394
C          C       0.94815   0.08714   0.90394
C          C       0.91286   0.86101   0.90394
C          C       0.18240   0.11671   0.90394
C          C       0.88329   0.06569   0.90394
C          C       0.93431   0.81760   0.90394
C          C       0.25522   0.14571   0.90394
C          C       0.85429   0.10951   0.90394
C          C       0.89049   0.74478   0.90394
C          C       0.29409   0.21497   0.90394
C          C       0.78503   0.07912   0.90394
C          C       0.92088   0.70591   0.90394
C          C       0.36334   0.24617   0.90394
C          C       0.75383   0.11717   0.90394
C          C       0.88283   0.63666   0.90394
C          C       0.39465   0.20832   0.90394
C          C       0.79168   0.18633   0.90394
C          C       0.81367   0.60535   0.90394
C          C       0.35644   0.13912   0.90394
C          C       0.86088   0.21732   0.90394
C          C       0.78268   0.64356   0.90394
C          C       0.28705   0.10756   0.90394
C          C       0.89244   0.17949   0.90394
C          C       0.82051   0.71295   0.90394
C          C       0.46597   0.24062   0.90394
C          C       0.75938   0.22535   0.90394
C          C       0.77465   0.53403   0.90394
C          C       0.52586   0.26810   0.90394
C          C       0.73190   0.25776   0.90394
C          C       0.74224   0.47414   0.90394
C          C       0.59722   0.30114   0.90394
C          C       0.69886   0.29608   0.90394
C          C       0.70392   0.40278   0.90394
C          C       0.63453   0.37052   0.90394
C          C       0.62948   0.26401   0.90394
C          C       0.73599   0.36547   0.90394
F          F       0.78851   0.74816   0.90394
F          F       0.25184   0.04035   0.90394
F          F       0.95965   0.21149   0.90394
H          H       0.15950   0.01648   0.90394
H          H       0.98352   0.14302   0.90394
H          H       0.85698   0.84050   0.90394
H          H       0.16405   0.15385   0.90394
H          H       0.84615   0.01020   0.90394
H          H       0.98980   0.83595   0.90394
H          H       0.26866   0.24599   0.90394
H          H       0.75401   0.02267   0.90394
H          H       0.97733   0.73134   0.90394
H          H       0.39435   0.30262   0.90394
H          H       0.69738   0.09173   0.90394
H          H       0.90827   0.60565   0.90394
H          H       0.38171   0.10796   0.90394
H          H       0.89204   0.27375   0.90394
H          H       0.72625   0.61829   0.90394
H          H       0.60843   0.40090   0.90394
H          H       0.59910   0.20753   0.90394
H          H       0.79247   0.39157   0.90394
