data_crystal

_cell_length_a    23.28200
_cell_length_b    23.28200
_cell_length_c    6.87400
_cell_angle_alpha 90.00000
_cell_angle_beta  90.00000
_cell_angle_gamma 120.00000

_space_group_name_Hall 'P 1'
_space_group_name_H-M_alt 'P 1'

loop_
_symmetry_equiv_pos_as_xyz
 'x,y,z'

loop_
_atom_site_label
_atom_site_type_symbol
_atom_site_fract_x
_atom_site_fract_y
_atom_site_fract_z
N          N       0.04008   0.06688   0.40394
N          N       0.93312   0.97320   0.40394
N          N       0.02680   0.95992   0.40394
C          C       0.06717   0.02685   0.40394
C          C       0.97315   0.04032   0.40394
C          C       0.95968   0.93283   0.40394
C          C       0.13969   0.05495   0.40394
C          C       0.94505   0.08474   0.40394
C          C       0.91526   0.86031   0.40394
C          C       0.18208   0.12017   0.40394
C          C       0.87983   0.06191   0.40394
C          C       0.93809   0.81792   0.40394
C          C       0.25487   0.14968   0.40394
C          C       0.85032   0.10519   0.40394
C          C       0.89481   0.74513   0.40394
C          C       0.29459   0.21887   0.40394
C          C       0.78113   0.07572   0.40394
C          C       0.92428   0.70541   0.40394
C          C       0.36384   0.24895   0.40394
C          C       0.75105   0.11489   0.40394
C          C       0.88511   0.63616   0.40394
C          C       0.39419   0.21011   0.40394
C          C       0.78989   0.18408   0.40394
C          C       0.81592   0.60581   0.40394
C          C       0.35481   0.14087   0.40394
C          C       0.85913   0.21394   0.40394
C          C       0.78606   0.64519   0.40394
C          C       0.28544   0.11073   0.40394
C          C       0.88927   0.17471   0.40394
C          C       0.82529   0.71456   0.40394
C          C       0.46563   0.24154   0.40394
C          C       0.75846   0.22409   0.40394
C          C       0.77591   0.53437   0.40394
C          C       0.52560   0.26859   0.40394
C          C       0.73141   0.25701   0.40394
C          C       0.74299   0.47440   0.40394
C          C       0.59712   0.30137   0.40394
C          C       0.69863   0.29575   0.40394
C          C       0.70425   0.40288   0.40394
C          C       0.63481   0.37081   0.40394
C          C       0.62919   0.26400   0.40394
C          C       0.73600   0.36519   0.40394
H          H       0.16141   0.02061   0.40394
H          H       0.97939   0.14080   0.40394
H          H       0.85920   0.83859   0.40394
H          H       0.16259   0.15638   0.40394
H          H       0.84362   0.00621   0.40394
H          H       0.99379   0.83741   0.40394
H          H       0.27009   0.25075   0.40394
H          H       0.74925   0.01934   0.40394
H          H       0.98066   0.72991   0.40394
H          H       0.39572   0.30533   0.40394
H          H       0.69467   0.09039   0.40394
H          H       0.90961   0.60428   0.40394
H          H       0.37912   0.10881   0.40394
H          H       0.89119   0.27031   0.40394
H          H       0.72969   0.62088   0.40394
H          H       0.25356   0.05435   0.40394
H          H       0.94565   0.19921   0.40394
H          H       0.80079   0.74644   0.40394
H          H       0.60899   0.40147   0.40394
H          H       0.59853   0.20752   0.40394
H          H       0.79248   0.39101   0.40394
N          N       0.04008   0.06688   0.90394
N          N       0.93312   0.97320   0.90394
N          N       0.02680   0.95992   0.90394
C          C       0.06717   0.02685   0.90394
C          C       0.97315   0.04032   0.90394
C          C       0.95968   0.93283   0.90394
C          C       0.13969   0.05495   0.90394
C          C       0.94505   0.08474   0.90394
C          C       0.91526   0.86031   0.90394
C          C       0.18208   0.12017   0.90394
C          C       0.87983   0.06191   0.90394
C          C       0.93809   0.81792   0.90394
C          C       0.25487   0.14968   0.90394
C          C       0.85032   0.10519   0.90394
C          C       0.89481   0.74513   0.90394
C          C       0.29459   0.21887   0.90394
C          C       0.78113   0.07572   0.90394
C          C       0.92428   0.70541   0.90394
C          C       0.36384   0.24895   0.90394
C          C       0.75105   0.11489   0.90394
C          C       0.88511   0.63616   0.90394
C          C       0.39419   0.21011   0.90394
C          C       0.78989   0.18408   0.90394
C          C       0.81592   0.60581   0.90394
C          C       0.35481   0.14087   0.90394
C          C       0.85913   0.21394   0.90394
C          C       0.78606   0.64519   0.90394
C          C       0.28544   0.11073   0.90394
C          C       0.88927   0.17471   0.90394
C          C       0.82529   0.71456   0.90394
C          C       0.46563   0.24154   0.90394
C          C       0.75846   0.22409   0.90394
C          C       0.77591   0.53437   0.90394
C          C       0.52560   0.26859   0.90394
C          C       0.73141   0.25701   0.90394
C          C       0.74299   0.47440   0.90394
C          C       0.59712   0.30137   0.90394
C          C       0.69863   0.29575   0.90394
C          C       0.70425   0.40288   0.90394
C          C       0.63481   0.37081   0.90394
C          C       0.62919   0.26400   0.90394
C          C       0.73600   0.36519   0.90394
H          H       0.16141   0.02061   0.90394
H          H       0.97939   0.14080   0.90394
H          H       0.85920   0.83859   0.90394
H          H       0.16259   0.15638   0.90394
H          H       0.84362   0.00621   0.90394
H          H       0.99379   0.83741   0.90394
H          H       0.27009   0.25075   0.90394
H          H       0.74925   0.01934   0.90394
H          H       0.98066   0.72991   0.90394
H          H       0.39572   0.30533   0.90394
H          H       0.69467   0.09039   0.90394
H          H       0.90961   0.60428   0.90394
H          H       0.37912   0.10881   0.90394
H          H       0.89119   0.27031   0.90394
H          H       0.72969   0.62088   0.90394
H          H       0.25356   0.05435   0.90394
H          H       0.94565   0.19921   0.90394
H          H       0.80079   0.74644   0.90394
H          H       0.60899   0.40147   0.90394
H          H       0.59853   0.20752   0.90394
H          H       0.79248   0.39101   0.90394
