data_crystal

_cell_length_a    23.28400
_cell_length_b    23.28400
_cell_length_c    6.87400
_cell_angle_alpha 90.00000
_cell_angle_beta  90.00000
_cell_angle_gamma 120.00000

_space_group_name_Hall 'P 1'
_space_group_name_H-M_alt 'P 1'

loop_
_symmetry_equiv_pos_as_xyz
 'x,y,z'

loop_
_atom_site_label
_atom_site_type_symbol
_atom_site_fract_x
_atom_site_fract_y
_atom_site_fract_z
N          N       0.04210   0.06649   0.40394
N          N       0.93351   0.97561   0.40394
N          N       0.02439   0.95790   0.40394
C          C       0.06670   0.02441   0.40394
C          C       0.97559   0.04229   0.40394
C          C       0.95771   0.93330   0.40394
C          C       0.13853   0.04980   0.40394
C          C       0.95020   0.08873   0.40394
C          C       0.91127   0.86147   0.40394
C          C       0.18263   0.11442   0.40394
C          C       0.88558   0.06821   0.40394
C          C       0.93179   0.81737   0.40394
C          C       0.25542   0.14293   0.40394
C          C       0.85707   0.11249   0.40394
C          C       0.88751   0.74458   0.40394
C          C       0.29380   0.21223   0.40394
C          C       0.78777   0.08157   0.40394
C          C       0.91843   0.70620   0.40394
C          C       0.36296   0.24414   0.40394
C          C       0.75586   0.11882   0.40394
C          C       0.88118   0.63704   0.40394
C          C       0.39487   0.20700   0.40394
C          C       0.79300   0.18787   0.40394
C          C       0.81213   0.60513   0.40394
C          C       0.35739   0.13786   0.40394
C          C       0.86214   0.21953   0.40394
C          C       0.78047   0.64261   0.40394
C          C       0.28739   0.10467   0.40394
C          C       0.89533   0.18272   0.40394
C          C       0.81728   0.71261   0.40394
C          C       0.46613   0.23986   0.40394
C          C       0.76014   0.22627   0.40394
C          C       0.77373   0.53387   0.40394
C          C       0.52598   0.26765   0.40394
C          C       0.73235   0.25833   0.40394
C          C       0.74167   0.47402   0.40394
C          C       0.59726   0.30092   0.40394
C          C       0.69908   0.29634   0.40394
C          C       0.70366   0.40274   0.40394
C          C       0.63429   0.37028   0.40394
C          C       0.62972   0.26401   0.40394
C          C       0.73599   0.36571   0.40394
O          O       0.78590   0.75092   0.40394
O          O       0.24908   0.03498   0.40394
O          O       0.96502   0.21410   0.40394
C          C       0.71529   0.71491   0.40394
C          C       0.28509   0.00038   0.40394
C          C       0.99962   0.28471   0.40394
H          H       0.15823   0.01376   0.40394
H          H       0.98624   0.14447   0.40394
H          H       0.85553   0.84177   0.40394
H          H       0.16507   0.15218   0.40394
H          H       0.84782   0.01289   0.40394
H          H       0.98711   0.83493   0.40394
H          H       0.26774   0.24264   0.40394
H          H       0.75736   0.02510   0.40394
H          H       0.97490   0.73226   0.40394
H          H       0.39338   0.30062   0.40394
H          H       0.69938   0.09276   0.40394
H          H       0.90724   0.60662   0.40394
H          H       0.38325   0.10725   0.40394
H          H       0.89275   0.27600   0.40394
H          H       0.72400   0.61675   0.40394
H          H       0.60796   0.40044   0.40394
H          H       0.59956   0.20752   0.40394
H          H       0.79248   0.39204   0.40394
H          H       0.69704   0.66101   0.44436
H          H       0.33899   0.03603   0.44436
H          H       0.96397   0.30296   0.44436
H          H       0.69628   0.71716   0.25312
H          H       0.28284   0.97912   0.25312
H          H       0.02088   0.30372   0.25312
H          H       0.69600   0.73772   0.01435
H          H       0.26228   0.95828   0.01435
H          H       0.04172   0.30400   0.01435
N          N       0.04210   0.06649   0.90394
N          N       0.93351   0.97561   0.90394
N          N       0.02439   0.95790   0.90394
C          C       0.06670   0.02441   0.90394
C          C       0.97559   0.04229   0.90394
C          C       0.95771   0.93330   0.90394
C          C       0.13853   0.04980   0.90394
C          C       0.95020   0.08873   0.90394
C          C       0.91127   0.86147   0.90394
C          C       0.18263   0.11442   0.90394
C          C       0.88558   0.06821   0.90394
C          C       0.93179   0.81737   0.90394
C          C       0.25542   0.14293   0.90394
C          C       0.85707   0.11249   0.90394
C          C       0.88751   0.74458   0.90394
C          C       0.29380   0.21223   0.90394
C          C       0.78777   0.08157   0.90394
C          C       0.91843   0.70620   0.90394
C          C       0.36296   0.24414   0.90394
C          C       0.75586   0.11882   0.90394
C          C       0.88118   0.63704   0.90394
C          C       0.39487   0.20700   0.90394
C          C       0.79300   0.18787   0.90394
C          C       0.81213   0.60513   0.90394
C          C       0.35739   0.13786   0.90394
C          C       0.86214   0.21953   0.90394
C          C       0.78047   0.64261   0.90394
C          C       0.28739   0.10467   0.90394
C          C       0.89533   0.18272   0.90394
C          C       0.81728   0.71261   0.90394
C          C       0.46613   0.23986   0.90394
C          C       0.76014   0.22627   0.90394
C          C       0.77373   0.53387   0.90394
C          C       0.52598   0.26765   0.90394
C          C       0.73235   0.25833   0.90394
C          C       0.74167   0.47402   0.90394
C          C       0.59726   0.30092   0.90394
C          C       0.69908   0.29634   0.90394
C          C       0.70366   0.40274   0.90394
C          C       0.63429   0.37028   0.90394
C          C       0.62972   0.26401   0.90394
C          C       0.73599   0.36571   0.90394
O          O       0.78590   0.75092   0.90394
O          O       0.24908   0.03498   0.90394
O          O       0.96502   0.21410   0.90394
C          C       0.71529   0.71491   0.90394
C          C       0.28509   0.00038   0.90394
C          C       0.99962   0.28471   0.90394
H          H       0.15823   0.01376   0.90394
H          H       0.98624   0.14447   0.90394
H          H       0.85553   0.84177   0.90394
H          H       0.16507   0.15218   0.90394
H          H       0.84782   0.01289   0.90394
H          H       0.98711   0.83493   0.90394
H          H       0.26774   0.24264   0.90394
H          H       0.75736   0.02510   0.90394
H          H       0.97490   0.73226   0.90394
H          H       0.39338   0.30062   0.90394
H          H       0.69938   0.09276   0.90394
H          H       0.90724   0.60662   0.90394
H          H       0.38325   0.10725   0.90394
H          H       0.89275   0.27600   0.90394
H          H       0.72400   0.61675   0.90394
H          H       0.60796   0.40044   0.90394
H          H       0.59956   0.20752   0.90394
H          H       0.79248   0.39204   0.90394
H          H       0.69704   0.66101   0.94436
H          H       0.33899   0.03603   0.94436
H          H       0.96397   0.30296   0.94436
H          H       0.69628   0.71716   0.75313
H          H       0.28284   0.97912   0.75313
H          H       0.02088   0.30372   0.75313
H          H       0.69600   0.73772   0.51435
H          H       0.26228   0.95828   0.51435
H          H       0.04172   0.30400   0.51435
