data_crystal

_cell_length_a    26.20000
_cell_length_b    26.20000
_cell_length_c    14.20000
_cell_angle_alpha 90.00000
_cell_angle_beta  90.00000
_cell_angle_gamma 120.00000

_space_group_name_Hall 'P 1'
_space_group_name_H-M_alt 'P 1'

loop_
_symmetry_equiv_pos_as_xyz
 'x,y,z'

loop_
_atom_site_label
_atom_site_type_symbol
_atom_site_fract_x
_atom_site_fract_y
_atom_site_fract_z
C          C       0.62810   0.22890   0.17940
C          C       0.56710   0.19030   0.19065
C          C       0.53760   0.13940   0.13380
C          C       0.56900   0.12700   0.06510
C          C       0.63050   0.16470   0.05620
C          C       0.65990   0.21520   0.11345
Sb         Sb      0.66970   0.31270   0.25325
H          H       0.49001   0.04622   0.01123
H          H       0.54267   0.19971   0.24323
H          H       0.70738   0.24384   0.10686
H          H       0.65522   0.15471   0.00501
H          H       0.49050   0.10959   0.14291
C          C       0.62870   0.34830   0.16245
C          C       0.59550   0.31600   0.08335
C          C       0.57320   0.34110   0.01940
C          C       0.58420   0.39910   0.03390
C          C       0.61720   0.43140   0.11335
C          C       0.63960   0.40610   0.17745
H          H       0.58711   0.27136   0.07178
H          H       0.62538   0.47594   0.12517
H          H       0.66520   0.43120   0.23822
C          C       0.84990   0.41360   0.05085
C          C       0.74780   0.35540   0.16510
C          C       0.80160   0.39830   0.20500
C          C       0.85240   0.42750   0.14790
C          C       0.79570   0.37140   0.01055
C          C       0.74480   0.34290   0.06735
H          H       0.80400   0.40890   0.27960
H          H       0.94339   0.48114   0.02196
H          H       0.89383   0.46096   0.17865
H          H       0.70286   0.31105   0.03593
C          C       0.56390   0.02550   0.77310
C          C       0.53230   0.02620   0.85350
N          N       0.56230   0.07170   0.92355
C          C       0.53630   0.07780   0.99825
H          H       0.61035   0.05840   0.76582
Sb         Sb      0.34280   0.65060   0.31700
C          C       0.38200   0.73510   0.38865
C          C       0.44210   0.77610   0.37395
C          C       0.47060   0.82760   0.42955
C          C       0.35000   0.74700   0.45670
C          C       0.26550   0.60610   0.40660
C          C       0.21190   0.56230   0.36735
C          C       0.16140   0.53250   0.42510
C          C       0.38740   0.61870   0.40755
C          C       0.37500   0.56000   0.39915
C          C       0.40030   0.53760   0.46315
C          C       0.42530   0.65500   0.47990
C          C       0.43910   0.83830   0.50035
C          C       0.37840   0.79820   0.51265
C          C       0.16420   0.54640   0.52215
C          C       0.21820   0.58950   0.56180
C          C       0.26870   0.61870   0.50435
C          C       0.43800   0.57400   0.53610
C          C       0.45050   0.63270   0.54380
N          N       0.45230   0.49710   0.60590
C          C       0.46270   0.55130   0.60765
C          C       0.00710   0.50790   0.87190
C          C       0.05630   0.53440   0.81110
C          C       0.05670   0.50670   0.72570
C          C       0.00710   0.45190   0.70145
N          N       0.10820   0.53470   0.66570
C          C       0.11010   0.51630   0.58035
C          C       0.52590   0.48390   0.82725
C          C       0.50590   0.50800   0.75735
C          C       0.47460   0.47400   0.67745
C          C       0.46370   0.41580   0.66870
C          C       0.48380   0.39170   0.73865
C          C       0.51490   0.42540   0.81830
N          N       0.53520   0.39960   0.88840
C          C       0.56340   0.42720   0.96515
C          C       0.47190   0.98350   0.86225
C          C       0.53570   0.98250   0.70225
C          C       0.44370   0.94040   0.79145
C          C       0.47520   0.93970   0.71105
N          N       0.44550   0.89380   0.64155
C          C       0.47130   0.88830   0.56610
H          H       0.54983   0.51029   0.88817
H          H       0.51449   0.55300   0.76462
H          H       0.43972   0.38935   0.60786
H          H       0.47528   0.34673   0.73122
H          H       0.57167   0.47163   0.97854
H          H       0.44711   0.98384   0.92358
H          H       0.56046   0.98224   0.64084
H          H       0.39728   0.90742   0.79888
H          H       0.51705   0.92098   0.55163
H          H       0.09434   0.57658   0.83009
H          H       0.49036   0.58066   0.66339
H          H       0.35350   0.80683   0.56542
H          H       0.00732   0.52962   0.93741
H          H       0.22082   0.60013   0.63642
H          H       0.31053   0.65121   0.53526
H          H       0.47969   0.66094   0.59923
H          H       0.51703   0.85922   0.41788
H          H       0.30307   0.71641   0.46599
H          H       0.12003   0.49861   0.39480
H          H       0.34597   0.53193   0.34344
H          H       0.39084   0.49228   0.45648
H          H       0.43506   0.70043   0.48625
H          H       0.20940   0.55146   0.29284
H          H       0.54750   0.31583   0.95882
H          H       0.46660   0.76806   0.31965
H          H       0.07111   0.47814   0.55181
H          H       0.00689   0.43018   0.63594
C          C       0.95790   0.42540   0.76220
C          C       0.95750   0.45310   0.84765
N          N       0.90600   0.42520   0.90750
C          C       0.90420   0.44340   0.99300
H          H       0.79322   0.36091   0.93589
H          H       0.91986   0.38323   0.74318
C          C       0.16420   0.54640   0.02215
C          C       0.21820   0.58950   0.06180
C          C       0.26870   0.61870   0.00435
C          C       0.00710   0.50790   0.37190
C          C       0.05630   0.53440   0.31110
C          C       0.05670   0.50670   0.22570
C          C       0.00710   0.45190   0.20145
N          N       0.10820   0.53470   0.16570
C          C       0.11010   0.51630   0.08035
H          H       0.31053   0.65121   0.03527
H          H       0.09434   0.57658   0.33009
H          H       0.00689   0.43018   0.13594
H          H       0.00732   0.52962   0.43741
H          H       0.07111   0.47814   0.05181
H          H       0.22082   0.60013   0.13642
C          C       0.26550   0.60610   0.90660
C          C       0.21190   0.56230   0.86735
C          C       0.16140   0.53250   0.92510
Sb         Sb      0.34280   0.65060   0.81700
H          H       0.12003   0.49861   0.89480
H          H       0.20940   0.55146   0.79284
C          C       0.38740   0.61870   0.90755
C          C       0.37500   0.56000   0.89915
C          C       0.40030   0.53760   0.96315
C          C       0.42530   0.65500   0.97990
H          H       0.43506   0.70043   0.98625
H          H       0.39084   0.49228   0.95648
H          H       0.34597   0.53193   0.84344
C          C       0.38200   0.73510   0.88865
C          C       0.44210   0.77610   0.87395
C          C       0.47060   0.82760   0.92955
C          C       0.35000   0.74700   0.95670
H          H       0.30307   0.71641   0.96599
H          H       0.51703   0.85922   0.91788
H          H       0.46660   0.76806   0.81965
C          C       0.43800   0.57400   0.03610
C          C       0.45050   0.63270   0.04380
N          N       0.45230   0.49710   0.10590
C          C       0.46270   0.55130   0.10765
C          C       0.95790   0.42540   0.26220
C          C       0.95750   0.45310   0.34765
N          N       0.90600   0.42520   0.40750
C          C       0.90420   0.44340   0.49300
C          C       0.52590   0.48390   0.32725
C          C       0.50590   0.50800   0.25735
C          C       0.47460   0.47400   0.17745
C          C       0.46370   0.41580   0.16870
C          C       0.48380   0.39170   0.23865
C          C       0.51490   0.42540   0.31830
N          N       0.53520   0.39960   0.38840
C          C       0.56340   0.42720   0.46515
C          C       0.56390   0.02550   0.27310
C          C       0.53230   0.02620   0.35350
N          N       0.56230   0.07170   0.42355
C          C       0.53630   0.07780   0.49825
C          C       0.84990   0.41360   0.55085
Sb         Sb      0.66970   0.31270   0.75325
C          C       0.74780   0.35540   0.66510
C          C       0.80160   0.39830   0.70500
C          C       0.85240   0.42750   0.64790
C          C       0.79570   0.37140   0.51055
C          C       0.74480   0.34290   0.56735
C          C       0.62810   0.22890   0.67940
C          C       0.56710   0.19030   0.69065
C          C       0.53760   0.13940   0.63380
C          C       0.56900   0.12700   0.56510
C          C       0.63050   0.16470   0.55620
C          C       0.65990   0.21520   0.61345
C          C       0.62870   0.34830   0.66245
C          C       0.59550   0.31600   0.58335
C          C       0.57320   0.34110   0.51940
C          C       0.58420   0.39910   0.53390
C          C       0.61720   0.43140   0.61335
C          C       0.63960   0.40610   0.67745
H          H       0.47969   0.66094   0.09923
H          H       0.91986   0.38323   0.24318
H          H       0.51449   0.55300   0.26462
H          H       0.43972   0.38935   0.10786
H          H       0.57167   0.47163   0.47854
H          H       0.61035   0.05840   0.26582
H          H       0.49001   0.04622   0.51123
H          H       0.80400   0.40890   0.77960
H          H       0.89383   0.46096   0.67865
H          H       0.79322   0.36091   0.43589
H          H       0.70286   0.31105   0.53592
H          H       0.54267   0.19971   0.74323
H          H       0.49050   0.10959   0.64291
H          H       0.65522   0.15471   0.50501
H          H       0.70738   0.24384   0.60686
H          H       0.58711   0.27136   0.57178
H          H       0.54750   0.31583   0.45882
H          H       0.49036   0.58066   0.16339
H          H       0.94339   0.48114   0.52196
H          H       0.47528   0.34673   0.23122
H          H       0.54983   0.51029   0.38817
H          H       0.62538   0.47594   0.62517
H          H       0.66520   0.43120   0.73822
C          C       0.43910   0.83830   0.00035
C          C       0.37840   0.79820   0.01265
C          C       0.47190   0.98350   0.36225
C          C       0.53570   0.98250   0.20225
C          C       0.44370   0.94040   0.29145
C          C       0.47520   0.93970   0.21105
N          N       0.44550   0.89380   0.14155
C          C       0.47130   0.88830   0.06610
H          H       0.35350   0.80683   0.06542
H          H       0.56046   0.98224   0.14083
H          H       0.39728   0.90742   0.29888
H          H       0.51705   0.92098   0.05163
H          H       0.44711   0.98384   0.42358
