data_Tb-DANT-COF
_audit_creation_date              0000-00-00
_audit_creation_method            'LanYouShi'
_symmetry_space_group_name_H-M    'P1'
_cell_length_a                    29.7115002
_cell_length_b                    29.7115002
_cell_length_c                    3.4684000
_cell_angle_alpha                 90.0000000
_cell_angle_beta                  90.0000000
_cell_angle_gamma                 120.0000000
loop_
_atom_site_label
_atom_site_type_symbol
_atom_site_fract_x
_atom_site_fract_y
_atom_site_fract_z
_atom_site_U_iso_or_equiv
_atom_site_adp_type
_atom_site_occupancy
        N1          N  0.4067416  0.5947957  0.0000000    0.00000       Uiso       1.00
        N2          N  0.4052029  0.8119445  0.0000000    0.00000       Uiso       1.00
        N3          N  0.1880541  0.5932570  0.0000000    0.00000       Uiso       1.00
        N4          N  0.5932570  0.4052029  0.0000000    0.00000       Uiso       1.00
        N5          N  0.5947957  0.1880541  0.0000000    0.00000       Uiso       1.00
        N6          N  0.8119445  0.4067416  0.0000000    0.00000       Uiso       1.00
        C1          C  0.3215853  0.6147367  0.0000000    0.00000       Uiso       1.00
        C2          C  0.3852619  0.7068472  0.0000000    0.00000       Uiso       1.00
        C3          C  0.2931514  0.6784133  0.0000000    0.00000       Uiso       1.00
        C4          C  0.6784133  0.3852619  0.0000000    0.00000       Uiso       1.00
        C5          C  0.6147367  0.2931514  0.0000000    0.00000       Uiso       1.00
        C6          C  0.7068472  0.3215853  0.0000000    0.00000       Uiso       1.00
        C7          C  0.4155638  0.6441129  0.0000000    0.00000       Uiso       1.00
        C8          C  0.3558857  0.7714494  0.0000000    0.00000       Uiso       1.00
        C9          C  0.2285491  0.5844348  0.0000000    0.00000       Uiso       1.00
       C10          C  0.5844348  0.3558857  0.0000000    0.00000       Uiso       1.00
       C11          C  0.6441129  0.2285491  0.0000000    0.00000       Uiso       1.00
       C12          C  0.7714495  0.4155638  0.0000000    0.00000       Uiso       1.00
        N7          N  0.4350581  0.5721180  0.0000000    0.00000       Uiso       1.00
        N8          N  0.4278806  0.8629387  0.0000000    0.00000       Uiso       1.00
        N9          N  0.1370600  0.5649406  0.0000000    0.00000       Uiso       1.00
       N10          N  0.5649406  0.4278806  0.0000000    0.00000       Uiso       1.00
       N11          N  0.5721180  0.1370600  0.0000000    0.00000       Uiso       1.00
       N12          N  0.8629386  0.4350580  0.0000000    0.00000       Uiso       1.00
       C13          C  0.4884698  0.5975935  0.0000000    0.00000       Uiso       1.00
       C14          C  0.4024051  0.8908750  0.0000000    0.00000       Uiso       1.00
       C15          C  0.1091237  0.5115288  0.0000000    0.00000       Uiso       1.00
       C16          C  0.5115288  0.4024051  0.0000000    0.00000       Uiso       1.00
       C17          C  0.5975935  0.1091237  0.0000000    0.00000       Uiso       1.00
       C18          C  0.8908749  0.4884698  0.0000000    0.00000       Uiso       1.00
       C19          C  0.5156860  0.5697306  0.0000000    0.00000       Uiso       1.00
       C20          C  0.4302680  0.9459540  0.0000000    0.00000       Uiso       1.00
       C21          C  0.0540447  0.4843127  0.0000000    0.00000       Uiso       1.00
       C22          C  0.4843127  0.4302680  0.0000000    0.00000       Uiso       1.00
       C23          C  0.5697306  0.0540447  0.0000000    0.00000       Uiso       1.00
       C24          C  0.9459539  0.5156859  0.0000000    0.00000       Uiso       1.00
       C25          C  0.4868865  0.5145990  0.0000000    0.00000       Uiso       1.00
       C26          C  0.4853996  0.9722860  0.0000000    0.00000       Uiso       1.00
       C27          C  0.0277126  0.5131121  0.0000000    0.00000       Uiso       1.00
       C28          C  0.5131122  0.4853996  0.0000000    0.00000       Uiso       1.00
       C29          C  0.5145990  0.0277126  0.0000000    0.00000       Uiso       1.00
       C30          C  0.9722861  0.4868865  0.0000000    0.00000       Uiso       1.00
       C31          C  0.4317919  0.4886816  0.0000000    0.00000       Uiso       1.00
       C32          C  0.5113170  0.9431089  0.0000000    0.00000       Uiso       1.00
       C33          C  0.0568897  0.5682067  0.0000000    0.00000       Uiso       1.00
       C34          C  0.5682067  0.5113170  0.0000000    0.00000       Uiso       1.00
       C35          C  0.4886816  0.0568897  0.0000000    0.00000       Uiso       1.00
       C36          C  0.9431089  0.4317919  0.0000000    0.00000       Uiso       1.00
       C37          C  0.4069266  0.5187658  0.0000000    0.00000       Uiso       1.00
       C38          C  0.4812328  0.8881594  0.0000000    0.00000       Uiso       1.00
       C39          C  0.1118393  0.5930721  0.0000000    0.00000       Uiso       1.00
       C40          C  0.5930721  0.4812328  0.0000000    0.00000       Uiso       1.00
       C41          C  0.5187658  0.1118393  0.0000000    0.00000       Uiso       1.00
       C42          C  0.8881593  0.4069266  0.0000000    0.00000       Uiso       1.00
       C43          C  0.3742838  0.6547297  0.0000000    0.00000       Uiso       1.00
       C44          C  0.3452689  0.7195528  0.0000000    0.00000       Uiso       1.00
       C45          C  0.2804459  0.6257148  0.0000000    0.00000       Uiso       1.00
       C46          C  0.6257148  0.3452690  0.0000000    0.00000       Uiso       1.00
       C47          C  0.6547297  0.2804459  0.0000000    0.00000       Uiso       1.00
       C48          C  0.7195528  0.3742838  0.0000000    0.00000       Uiso       1.00
        H1          H  0.4527013  0.6745784  0.0000000    0.00000       Uiso       1.00
        H2          H  0.3254202  0.7781215  0.0000000    0.00000       Uiso       1.00
        H3          H  0.2218771  0.5472973  0.0000000    0.00000       Uiso       1.00
        H4          H  0.5472974  0.3254202  0.0000000    0.00000       Uiso       1.00
        H5          H  0.6745784  0.2218772  0.0000000    0.00000       Uiso       1.00
        H6          H  0.7781215  0.4527013  0.0000000    0.00000       Uiso       1.00
        O1          O  0.5146437  0.6462576  0.0000000    0.00000       Uiso       1.00
        O2          O  0.3537410  0.8683848  0.0000000    0.00000       Uiso       1.00
        O3          O  0.1316139  0.4853549  0.0000000    0.00000       Uiso       1.00
        O4          O  0.4853549  0.3537410  0.0000000    0.00000       Uiso       1.00
        O5          O  0.6462576  0.1316139  0.0000000    0.00000       Uiso       1.00
        O6          O  0.8683847  0.5146438  0.0000000    0.00000       Uiso       1.00
        O7          O  0.3580361  0.4954346  0.0000000    0.00000       Uiso       1.00
        O8          O  0.5045640  0.8626002  0.0000000    0.00000       Uiso       1.00
        O9          O  0.1373985  0.6419625  0.0000000    0.00000       Uiso       1.00
       O10          O  0.6419625  0.5045640  0.0000000    0.00000       Uiso       1.00
       O11          O  0.4954346  0.1373985  0.0000000    0.00000       Uiso       1.00
       O12          O  0.8626001  0.3580361  0.0000000    0.00000       Uiso       1.00
       C49          C  0.9756669  0.5705637  0.0000000    0.00000       Uiso       1.00
       C50          C  0.0301214  0.5963497  0.0000000    0.00000       Uiso       1.00
        H7          H  0.9580186  0.5925926  0.0000000    0.00000       Uiso       1.00
        H8          H  0.0499566  0.6361083  0.0000000    0.00000       Uiso       1.00
       C51          C  0.4294349  0.4051032  0.0000000    0.00000       Uiso       1.00
       C52          C  0.4036490  0.4337704  0.0000000    0.00000       Uiso       1.00
        H9          H  0.4074061  0.3654260  0.0000000    0.00000       Uiso       1.00
       H10          H  0.3638903  0.4138469  0.0000000    0.00000       Uiso       1.00
       C53          C  0.5948954  0.0243317  0.0000000    0.00000       Uiso       1.00
       C54          C  0.5662282  0.9698772  0.0000000    0.00000       Uiso       1.00
       H11          H  0.6345726  0.0419801  0.0000000    0.00000       Uiso       1.00
       H12          H  0.5861518  0.9500420  0.0000000    0.00000       Uiso       1.00
       C55          C  0.0243317  0.4294349  0.0000000    0.00000       Uiso       1.00
       C56          C  0.9698772  0.4036490  0.0000000    0.00000       Uiso       1.00
       H13          H  0.0419801  0.4074061  0.0000000    0.00000       Uiso       1.00
       H14          H  0.9500420  0.3638903  0.0000000    0.00000       Uiso       1.00
       C57          C  0.5705637  0.5948954  0.0000000    0.00000       Uiso       1.00
       C58          C  0.5963497  0.5662282  0.0000000    0.00000       Uiso       1.00
       H15          H  0.5925925  0.6345726  0.0000000    0.00000       Uiso       1.00
       H16          H  0.6361083  0.5861517  0.0000000    0.00000       Uiso       1.00
       C59          C  0.4051032  0.9756669  0.0000000    0.00000       Uiso       1.00
       C60          C  0.4337704  0.0301214  0.0000000    0.00000       Uiso       1.00
       H17          H  0.3654260  0.9580186  0.0000000    0.00000       Uiso       1.00
       H18          H  0.4138469  0.0499566  0.0000000    0.00000       Uiso       1.00
       H19          H  0.6871464  0.4232593  0.0000000    0.00000       Uiso       1.00
       H20          H  0.5767394  0.2638871  0.0000000    0.00000       Uiso       1.00
       H21          H  0.7361115  0.3128523  0.0000000    0.00000       Uiso       1.00
       H22          H  0.3128523  0.5767394  0.0000000    0.00000       Uiso       1.00
       H23          H  0.4232592  0.7361115  0.0000000    0.00000       Uiso       1.00
       H24          H  0.2638871  0.6871464  0.0000000    0.00000       Uiso       1.00
