data_crystal

_cell_length_a    30.71280
_cell_length_b    30.71280
_cell_length_c    7.11720
_cell_angle_alpha 90.00000
_cell_angle_beta  120.00000
_cell_angle_gamma 90.00000

_space_group_name_Hall 'P 1'
_space_group_name_H-M_alt 'P 1'

loop_
_symmetry_equiv_pos_as_xyz
 'x,y,z'

loop_
_atom_site_label
_atom_site_type_symbol
_atom_site_fract_x
_atom_site_fract_y
_atom_site_fract_z
C          C       0.64268   0.27689   0.25000
C          C       0.72311   0.36579   0.25000
C          C       0.63421   0.35732   0.25000
C          C       0.35732   0.72311   0.25000
C          C       0.27689   0.63421   0.25000
C          C       0.36579   0.64268   0.25000
C          C       0.69833   0.30988   0.25000
C          C       0.69012   0.38845   0.25000
C          C       0.61155   0.30167   0.25000
C          C       0.30167   0.69012   0.25000
C          C       0.30988   0.61155   0.25000
C          C       0.38845   0.69833   0.25000
C          C       0.98419   0.40813   0.25000
C          C       0.59187   0.57606   0.25000
C          C       0.42394   0.01581   0.25000
C          C       0.01581   0.59187   0.25000
C          C       0.40813   0.42394   0.25000
C          C       0.57606   0.98419   0.25000
C          C       0.06033   0.49678   0.25000
C          C       0.50322   0.56355   0.25000
C          C       0.43645   0.93967   0.25000
C          C       0.93967   0.50322   0.25000
C          C       0.49678   0.43645   0.25000
C          C       0.56355   0.06033   0.25000
C          C       0.86617   0.41846   0.25000
C          C       0.58154   0.44771   0.25000
C          C       0.55229   0.13383   0.25000
C          C       0.13383   0.58154   0.25000
C          C       0.41846   0.55229   0.25000
C          C       0.44771   0.86617   0.25000
C          C       0.89864   0.39880   0.25000
C          C       0.60120   0.49984   0.25000
C          C       0.50016   0.10136   0.25000
C          C       0.10136   0.60120   0.25000
C          C       0.39880   0.50016   0.25000
C          C       0.49984   0.89864   0.25000
N          N       0.81257   0.38385   0.25000
N          N       0.61615   0.42872   0.25000
N          N       0.57128   0.18743   0.25000
N          N       0.18743   0.61615   0.25000
N          N       0.38385   0.57128   0.25000
N          N       0.42872   0.81257   0.25000
C          C       0.77405   0.39797   0.25000
C          C       0.60203   0.37608   0.25000
C          C       0.62392   0.22595   0.25000
C          C       0.22595   0.60203   0.25000
C          C       0.39797   0.62392   0.25000
C          C       0.37608   0.77405   0.25000
H          H       0.88281   0.35830   0.25000
H          H       0.64170   0.52451   0.25000
H          H       0.47549   0.11719   0.25000
H          H       0.11719   0.64170   0.25000
H          H       0.35830   0.47549   0.25000
H          H       0.52451   0.88281   0.25000
H          H       0.80249   0.34605   0.25000
H          H       0.65395   0.45644   0.25000
H          H       0.54356   0.19751   0.25000
H          H       0.19751   0.65395   0.25000
H          H       0.34605   0.54356   0.25000
H          H       0.45644   0.80249   0.25000
H          H       0.78638   0.43763   0.25000
H          H       0.56237   0.34875   0.25000
H          H       0.65125   0.21362   0.25000
H          H       0.21362   0.56237   0.25000
H          H       0.43763   0.65125   0.25000
H          H       0.34875   0.78638   0.25000
C          C       0.03928   0.44165   0.25000
C          C       0.55835   0.59763   0.25000
C          C       0.40237   0.96072   0.25000
C          C       0.96072   0.55835   0.25000
C          C       0.44165   0.40237   0.25000
C          C       0.59763   0.03928   0.25000
C          C       0.95112   0.43032   0.25000
C          C       0.56968   0.52080   0.25000
C          C       0.47920   0.04888   0.25000
C          C       0.04888   0.56968   0.25000
C          C       0.43032   0.47920   0.25000
C          C       0.52080   0.95112   0.25000
C          C       0.11277   0.52904   0.25000
C          C       0.47096   0.58373   0.25000
C          C       0.41627   0.88723   0.25000
C          C       0.88723   0.47096   0.25000
C          C       0.52904   0.41627   0.25000
C          C       0.58373   0.11277   0.25000
H          H       0.13620   0.51214   0.25000
H          H       0.48786   0.62406   0.25000
H          H       0.37594   0.86380   0.25000
H          H       0.86380   0.48786   0.25000
H          H       0.51214   0.37594   0.25000
H          H       0.62406   0.13620   0.25000
C          C       0.02792   0.51699   0.25000
C          C       0.48301   0.51093   0.25000
C          C       0.48907   0.97208   0.25000
C          C       0.97208   0.48301   0.25000
C          C       0.51699   0.48907   0.25000
C          C       0.51093   0.02792   0.25000
O          O       0.42459   0.35695   0.25000
O          O       0.64305   0.06764   0.25000
O          O       0.93236   0.57541   0.25000
O          O       0.57541   0.64305   0.25000
O          O       0.35695   0.93236   0.25000
O          O       0.06764   0.42459   0.25000
O          O       0.71032   0.43400   0.25000
O          O       0.56600   0.27632   0.25000
O          O       0.72368   0.28968   0.25000
O          O       0.28968   0.56600   0.25000
O          O       0.43400   0.72368   0.25000
O          O       0.27632   0.71032   0.25000
O          O       0.39689   0.03438   0.25000
O          O       0.96562   0.36251   0.25000
O          O       0.63749   0.60311   0.25000
O          O       0.60311   0.96562   0.25000
O          O       0.03438   0.63749   0.25000
O          O       0.36251   0.39689   0.25000
C          C       0.64268   0.27689   0.75000
C          C       0.72311   0.36579   0.75000
C          C       0.63421   0.35732   0.75000
C          C       0.35732   0.72311   0.75000
C          C       0.27689   0.63421   0.75000
C          C       0.36579   0.64268   0.75000
C          C       0.69833   0.30988   0.75000
C          C       0.69012   0.38845   0.75000
C          C       0.61155   0.30167   0.75000
C          C       0.30167   0.69012   0.75000
C          C       0.30988   0.61155   0.75000
C          C       0.38845   0.69833   0.75000
C          C       0.98419   0.40813   0.75000
C          C       0.59187   0.57606   0.75000
C          C       0.42394   0.01581   0.75000
C          C       0.01581   0.59187   0.75000
C          C       0.40813   0.42394   0.75000
C          C       0.57606   0.98419   0.75000
C          C       0.06033   0.49678   0.75000
C          C       0.50322   0.56355   0.75000
C          C       0.43645   0.93967   0.75000
C          C       0.93967   0.50322   0.75000
C          C       0.49678   0.43645   0.75000
C          C       0.56355   0.06033   0.75000
C          C       0.86617   0.41846   0.75000
C          C       0.58154   0.44771   0.75000
C          C       0.55229   0.13383   0.75000
C          C       0.13383   0.58154   0.75000
C          C       0.41846   0.55229   0.75000
C          C       0.44771   0.86617   0.75000
C          C       0.89864   0.39880   0.75000
C          C       0.60120   0.49984   0.75000
C          C       0.50016   0.10136   0.75000
C          C       0.10136   0.60120   0.75000
C          C       0.39880   0.50016   0.75000
C          C       0.49984   0.89864   0.75000
N          N       0.81257   0.38385   0.75000
N          N       0.61615   0.42872   0.75000
N          N       0.57128   0.18743   0.75000
N          N       0.18743   0.61615   0.75000
N          N       0.38385   0.57128   0.75000
N          N       0.42872   0.81257   0.75000
C          C       0.77405   0.39797   0.75000
C          C       0.60203   0.37608   0.75000
C          C       0.62392   0.22595   0.75000
C          C       0.22595   0.60203   0.75000
C          C       0.39797   0.62392   0.75000
C          C       0.37608   0.77405   0.75000
H          H       0.88281   0.35830   0.75000
H          H       0.64170   0.52451   0.75000
H          H       0.47549   0.11719   0.75000
H          H       0.11719   0.64170   0.75000
H          H       0.35830   0.47549   0.75000
H          H       0.52451   0.88281   0.75000
H          H       0.80249   0.34605   0.75000
H          H       0.65395   0.45644   0.75000
H          H       0.54356   0.19751   0.75000
H          H       0.19751   0.65395   0.75000
H          H       0.34605   0.54356   0.75000
H          H       0.45644   0.80249   0.75000
H          H       0.78638   0.43763   0.75000
H          H       0.56237   0.34875   0.75000
H          H       0.65125   0.21362   0.75000
H          H       0.21362   0.56237   0.75000
H          H       0.43763   0.65125   0.75000
H          H       0.34875   0.78638   0.75000
C          C       0.03928   0.44165   0.75000
C          C       0.55835   0.59763   0.75000
C          C       0.40237   0.96072   0.75000
C          C       0.96072   0.55835   0.75000
C          C       0.44165   0.40237   0.75000
C          C       0.59763   0.03928   0.75000
C          C       0.95112   0.43032   0.75000
C          C       0.56968   0.52080   0.75000
C          C       0.47920   0.04888   0.75000
C          C       0.04888   0.56968   0.75000
C          C       0.43032   0.47920   0.75000
C          C       0.52080   0.95112   0.75000
C          C       0.11277   0.52904   0.75000
C          C       0.47096   0.58373   0.75000
C          C       0.41627   0.88723   0.75000
C          C       0.88723   0.47096   0.75000
C          C       0.52904   0.41627   0.75000
C          C       0.58373   0.11277   0.75000
H          H       0.13620   0.51214   0.75000
H          H       0.48786   0.62406   0.75000
H          H       0.37594   0.86380   0.75000
H          H       0.86380   0.48786   0.75000
H          H       0.51214   0.37594   0.75000
H          H       0.62406   0.13620   0.75000
C          C       0.02792   0.51699   0.75000
C          C       0.48301   0.51093   0.75000
C          C       0.48907   0.97208   0.75000
C          C       0.97208   0.48301   0.75000
C          C       0.51699   0.48907   0.75000
C          C       0.51093   0.02792   0.75000
O          O       0.42459   0.35695   0.75000
O          O       0.64305   0.06764   0.75000
O          O       0.93236   0.57541   0.75000
O          O       0.57541   0.64305   0.75000
O          O       0.35695   0.93236   0.75000
O          O       0.06764   0.42459   0.75000
O          O       0.71032   0.43400   0.75000
O          O       0.56600   0.27632   0.75000
O          O       0.72368   0.28968   0.75000
O          O       0.28968   0.56600   0.75000
O          O       0.43400   0.72368   0.75000
O          O       0.27632   0.71032   0.75000
O          O       0.39689   0.03438   0.75000
O          O       0.96562   0.36251   0.75000
O          O       0.63749   0.60311   0.75000
O          O       0.60311   0.96562   0.75000
O          O       0.03438   0.63749   0.75000
O          O       0.36251   0.39689   0.75000
