data_crystal

_cell_length_a    75.46130
_cell_length_b    75.46130
_cell_length_c    7.19800
_cell_angle_alpha 90.00000
_cell_angle_beta  90.00000
_cell_angle_gamma 120.00000

_space_group_name_Hall 'P 1'
_space_group_name_H-M_alt 'P 1'

loop_
_symmetry_equiv_pos_as_xyz
 'x,y,z'

loop_
_atom_site_label
_atom_site_type_symbol
_atom_site_fract_x
_atom_site_fract_y
_atom_site_fract_z
C          C       0.00923   0.49901   0.41744
C          C       0.50099   0.51022   0.41744
C          C       0.48978   0.99077   0.41744
C          C       0.02191   0.52020   0.40407
C          C       0.47980   0.50171   0.40407
C          C       0.49829   0.97809   0.40407
C          C       0.01323   0.53310   0.40487
C          C       0.46690   0.48013   0.40487
C          C       0.51987   0.98677   0.40487
C          C       0.04341   0.52801   0.37262
C          C       0.47199   0.51540   0.37262
C          C       0.48460   0.95659   0.37262
C          C       0.06138   0.53460   0.34497
C          C       0.46540   0.52678   0.34497
C          C       0.47322   0.93862   0.34497
C          C       0.08284   0.54265   0.31144
C          C       0.45735   0.54019   0.31144
C          C       0.45981   0.91716   0.31144
C          C       0.09107   0.52966   0.31473
C          C       0.47034   0.56141   0.31473
C          C       0.43859   0.90893   0.31473
C          C       0.11196   0.53753   0.28317
C          C       0.46247   0.57443   0.28317
C          C       0.42557   0.88804   0.28317
C          C       0.12484   0.55848   0.24829
C          C       0.44152   0.56636   0.24829
C          C       0.43364   0.87516   0.24829
C          C       0.11644   0.57144   0.24448
C          C       0.42856   0.54500   0.24448
C          C       0.45500   0.88356   0.24448
C          C       0.09554   0.56354   0.27571
C          C       0.43646   0.53200   0.27571
C          C       0.46800   0.90446   0.27571
C          C       0.14689   0.56647   0.21786
C          C       0.43353   0.58042   0.21786
C          C       0.41958   0.85311   0.21786
C          C       0.50230   0.01195   0.41826
C          C       0.98805   0.49035   0.41826
C          C       0.50965   0.49770   0.41826
C          C       0.53252   0.00818   0.40579
C          C       0.99182   0.52434   0.40579
C          C       0.47566   0.46748   0.40579
C          C       0.52354   0.02080   0.40576
C          C       0.97920   0.50274   0.40576
C          C       0.49726   0.47646   0.40576
C          C       0.53541   0.04258   0.37618
C          C       0.95742   0.49283   0.37618
C          C       0.50717   0.46459   0.37618
C          C       0.54541   0.06076   0.35040
C          C       0.93924   0.48465   0.35040
C          C       0.51535   0.45459   0.35040
C          C       0.55752   0.08243   0.31949
C          C       0.91757   0.47509   0.31949
C          C       0.52491   0.44248   0.31949
C          C       0.57826   0.09121   0.27402
C          C       0.90879   0.48705   0.27402
C          C       0.51295   0.42174   0.27402
C          C       0.59014   0.11231   0.24594
C          C       0.88769   0.47783   0.24594
C          C       0.52217   0.40986   0.24594
C          C       0.58140   0.12486   0.26273
C          C       0.87514   0.45654   0.26273
C          C       0.54346   0.41860   0.26273
C          C       0.56051   0.11591   0.30759
C          C       0.88409   0.44460   0.30759
C          C       0.55540   0.43949   0.30759
C          C       0.54866   0.09480   0.33588
C          C       0.90520   0.45386   0.33588
C          C       0.54614   0.45134   0.33588
C          C       0.59431   0.14714   0.23464
C          C       0.85286   0.44717   0.23464
C          C       0.55283   0.40569   0.23464
N          N       0.58657   0.15908   0.24856
N          N       0.84092   0.42749   0.24856
N          N       0.57251   0.41343   0.24856
N          N       0.15938   0.58596   0.19706
N          N       0.41404   0.57342   0.19706
N          N       0.42658   0.84062   0.19706
N          N       0.32355   0.67759   0.08467
N          N       0.32241   0.64596   0.08467
N          N       0.35404   0.67645   0.08467
C          C       0.31249   0.65682   0.08450
C          C       0.34318   0.65567   0.08450
C          C       0.34433   0.68751   0.08450
C          C       0.35627   0.71012   0.08948
C          C       0.28988   0.64615   0.08948
C          C       0.35385   0.64373   0.08948
C          C       0.37723   0.72058   0.04668
C          C       0.27942   0.65665   0.04668
C          C       0.34335   0.62277   0.04668
C          C       0.38861   0.74192   0.05556
C          C       0.25808   0.64669   0.05556
C          C       0.35331   0.61139   0.05556
C          C       0.37933   0.75330   0.10962
C          C       0.24670   0.62603   0.10962
C          C       0.37397   0.62067   0.10962
C          C       0.35831   0.74278   0.15152
C          C       0.25722   0.61553   0.15152
C          C       0.38447   0.64169   0.15152
C          C       0.34689   0.72146   0.14039
C          C       0.27854   0.62543   0.14039
C          C       0.37457   0.65311   0.14039
C          C       0.39157   0.77597   0.12594
C          C       0.22403   0.61560   0.12594
C          C       0.38440   0.60843   0.12594
C          C       0.41195   0.78561   0.18882
C          C       0.21439   0.62634   0.18882
C          C       0.37366   0.58805   0.18882
C          C       0.42326   0.80685   0.20847
C          C       0.19315   0.61641   0.20847
C          C       0.38359   0.57674   0.20847
C          C       0.41445   0.81891   0.16895
C          C       0.18109   0.59554   0.16895
C          C       0.40446   0.58555   0.16895
C          C       0.39423   0.80943   0.10214
C          C       0.19057   0.58480   0.10214
C          C       0.41520   0.60577   0.10214
C          C       0.38295   0.78819   0.08077
C          C       0.21181   0.59476   0.08077
C          C       0.40524   0.61705   0.08077
N          N       0.64599   0.32201   0.17095
N          N       0.67799   0.32398   0.17095
N          N       0.67602   0.35401   0.17095
C          C       0.65725   0.31251   0.17084
C          C       0.68749   0.34474   0.17084
C          C       0.65526   0.34275   0.17084
C          C       0.64289   0.35298   0.17418
C          C       0.64702   0.28991   0.17418
C          C       0.71009   0.35711   0.17418
C          C       0.65183   0.37388   0.13164
C          C       0.62612   0.27795   0.13164
C          C       0.72205   0.34817   0.13164
C          C       0.64021   0.38360   0.13734
C          C       0.61640   0.25661   0.13734
C          C       0.74339   0.35979   0.13734
C          C       0.61943   0.37270   0.18773
C          C       0.62730   0.24673   0.18773
C          C       0.75327   0.38057   0.18773
C          C       0.61051   0.35176   0.22996
C          C       0.64824   0.25875   0.22996
C          C       0.74125   0.38949   0.22996
C          C       0.62207   0.34199   0.22220
C          C       0.65801   0.28008   0.22220
C          C       0.71992   0.37793   0.22220
C          C       0.60718   0.38314   0.19866
C          C       0.61686   0.22404   0.19866
C          C       0.77596   0.39282   0.19866
C          C       0.61607   0.40342   0.26258
C          C       0.59658   0.21265   0.26258
C          C       0.78735   0.38393   0.26258
C          C       0.60445   0.41309   0.27579
C          C       0.58691   0.19136   0.27579
C          C       0.80864   0.39555   0.27579
C          C       0.58372   0.40277   0.22741
C          C       0.59723   0.18095   0.22741
C          C       0.81905   0.41628   0.22741
C          C       0.57479   0.38255   0.16069
C          C       0.61745   0.19224   0.16069
C          C       0.80776   0.42521   0.16069
C          C       0.58644   0.37289   0.14655
C          C       0.62711   0.21355   0.14655
C          C       0.78645   0.41356   0.14655
O          O       0.52959   0.97509   0.38319
O          O       0.02491   0.55450   0.38319
O          O       0.44550   0.47041   0.38319
O          O       0.98412   0.53783   0.38506
O          O       0.46217   0.44629   0.38506
O          O       0.55371   0.01588   0.38506
C          C       0.43439   0.47740   0.49258
C          C       0.52260   0.95699   0.49258
C          C       0.04301   0.56561   0.49258
C          C       0.46553   0.43245   0.49482
C          C       0.56755   0.03308   0.49482
C          C       0.96692   0.53447   0.49482
H          H       0.01572   0.48904   0.41834
H          H       0.51096   0.52668   0.41834
H          H       0.47332   0.98428   0.41834
H          H       0.08136   0.51347   0.34229
H          H       0.48653   0.56789   0.34229
H          H       0.43211   0.91864   0.34229
H          H       0.11809   0.52726   0.28690
H          H       0.47274   0.59083   0.28690
H          H       0.40917   0.88191   0.28690
H          H       0.12598   0.58765   0.21736
H          H       0.41235   0.53833   0.21736
H          H       0.46167   0.87402   0.21736
H          H       0.08929   0.57371   0.27219
H          H       0.42629   0.51558   0.27219
H          H       0.48442   0.91071   0.27219
H          H       0.15254   0.55582   0.22069
H          H       0.44418   0.59672   0.22069
H          H       0.40328   0.84746   0.22069
H          H       0.49530   0.02147   0.41980
H          H       0.97853   0.47383   0.41980
H          H       0.52617   0.50470   0.41980
H          H       0.58524   0.08175   0.26043
H          H       0.91825   0.50349   0.26043
H          H       0.49651   0.41476   0.26043
H          H       0.60617   0.11885   0.21109
H          H       0.88115   0.48732   0.21109
H          H       0.51268   0.39383   0.21109
H          H       0.55335   0.12520   0.32188
H          H       0.87480   0.42815   0.32188
H          H       0.57185   0.44665   0.32188
H          H       0.53263   0.08815   0.37137
H          H       0.91185   0.44448   0.37137
H          H       0.55552   0.46737   0.37137
H          H       0.61039   0.15324   0.20636
H          H       0.84676   0.45715   0.20636
H          H       0.54285   0.38961   0.20636
H          H       0.38485   0.71229   0.00476
H          H       0.28771   0.67256   0.00476
H          H       0.32744   0.61515   0.00476
H          H       0.40464   0.74950   0.01828
H          H       0.25050   0.65514   0.01828
H          H       0.34486   0.59536   0.01828
H          H       0.35074   0.75097   0.19757
H          H       0.24903   0.59977   0.19757
H          H       0.40023   0.64926   0.19757
H          H       0.33081   0.71385   0.17615
H          H       0.28615   0.61696   0.17615
H          H       0.38304   0.66919   0.17615
H          H       0.41903   0.77673   0.22757
H          H       0.22327   0.64230   0.22757
H          H       0.35770   0.58097   0.22757
H          H       0.43883   0.81394   0.25930
H          H       0.18606   0.62489   0.25930
H          H       0.37511   0.56117   0.25930
H          H       0.38717   0.81830   0.06271
H          H       0.18170   0.56887   0.06271
H          H       0.43113   0.61283   0.06271
H          H       0.36755   0.78137   0.02613
H          H       0.21863   0.58618   0.02613
H          H       0.41382   0.63245   0.02613
H          H       0.66778   0.38272   0.09203
H          H       0.61728   0.28506   0.09203
H          H       0.71494   0.33222   0.09203
H          H       0.64748   0.39962   0.10009
H          H       0.60038   0.24786   0.10009
H          H       0.75214   0.35252   0.10009
H          H       0.59468   0.34299   0.27313
H          H       0.65701   0.25169   0.27313
H          H       0.74831   0.40532   0.27313
H          H       0.61478   0.32592   0.25767
H          H       0.67408   0.28886   0.25767
H          H       0.71114   0.38522   0.25767
H          H       0.63189   0.41169   0.30686
H          H       0.58831   0.22020   0.30686
H          H       0.77980   0.36811   0.30686
H          H       0.61155   0.42864   0.32745
H          H       0.57136   0.18291   0.32745
H          H       0.81709   0.38845   0.32745
H          H       0.55903   0.37415   0.11634
H          H       0.62585   0.18488   0.11634
H          H       0.81512   0.44097   0.11634
H          H       0.57925   0.35748   0.09169
H          H       0.64252   0.22177   0.09169
H          H       0.77823   0.42075   0.09169
H          H       0.42208   0.46419   0.06855
H          H       0.53581   0.95789   0.06855
H          H       0.04211   0.57792   0.06855
H          H       0.42713   0.48371   0.40022
H          H       0.51629   0.94342   0.40022
H          H       0.05658   0.57287   0.40022
H          H       0.44405   0.48919   0.09567
H          H       0.51081   0.95486   0.09567
H          H       0.04514   0.55595   0.09567
H          H       0.46924   0.42298   0.40275
H          H       0.57702   0.04626   0.40275
H          H       0.95374   0.53076   0.40275
H          H       0.45123   0.42209   0.07063
H          H       0.57791   0.02914   0.07063
H          H       0.97086   0.54877   0.07063
H          H       0.47794   0.44026   0.09809
H          H       0.55974   0.03768   0.09809
H          H       0.96232   0.52206   0.09809
C          C       0.00923   0.49901   0.91744
C          C       0.50099   0.51022   0.91744
C          C       0.48978   0.99077   0.91744
C          C       0.02191   0.52020   0.90406
C          C       0.47980   0.50171   0.90406
C          C       0.49829   0.97809   0.90406
C          C       0.01323   0.53310   0.90488
C          C       0.46690   0.48013   0.90488
C          C       0.51987   0.98677   0.90488
C          C       0.04341   0.52801   0.87262
C          C       0.47199   0.51540   0.87262
C          C       0.48460   0.95659   0.87262
C          C       0.06138   0.53460   0.84497
C          C       0.46540   0.52678   0.84497
C          C       0.47322   0.93862   0.84497
C          C       0.08284   0.54265   0.81144
C          C       0.45735   0.54019   0.81144
C          C       0.45981   0.91716   0.81144
C          C       0.09107   0.52966   0.81473
C          C       0.47034   0.56141   0.81473
C          C       0.43859   0.90893   0.81473
C          C       0.11196   0.53753   0.78317
C          C       0.46247   0.57443   0.78317
C          C       0.42557   0.88804   0.78317
C          C       0.12484   0.55848   0.74829
C          C       0.44152   0.56636   0.74829
C          C       0.43364   0.87516   0.74829
C          C       0.11644   0.57144   0.74448
C          C       0.42856   0.54500   0.74448
C          C       0.45500   0.88356   0.74448
C          C       0.09554   0.56354   0.77571
C          C       0.43646   0.53200   0.77571
C          C       0.46800   0.90446   0.77571
C          C       0.14689   0.56647   0.71786
C          C       0.43353   0.58042   0.71786
C          C       0.41958   0.85311   0.71786
C          C       0.50230   0.01195   0.91826
C          C       0.98805   0.49035   0.91826
C          C       0.50965   0.49770   0.91826
C          C       0.53252   0.00818   0.90579
C          C       0.99182   0.52434   0.90579
C          C       0.47566   0.46748   0.90579
C          C       0.52354   0.02080   0.90576
C          C       0.97920   0.50274   0.90576
C          C       0.49726   0.47646   0.90576
C          C       0.53541   0.04258   0.87618
C          C       0.95742   0.49283   0.87618
C          C       0.50717   0.46459   0.87618
C          C       0.54541   0.06076   0.85040
C          C       0.93924   0.48465   0.85040
C          C       0.51535   0.45459   0.85040
C          C       0.55752   0.08243   0.81949
C          C       0.91757   0.47509   0.81949
C          C       0.52491   0.44248   0.81949
C          C       0.57826   0.09121   0.77402
C          C       0.90879   0.48705   0.77402
C          C       0.51295   0.42174   0.77402
C          C       0.59014   0.11231   0.74594
C          C       0.88769   0.47783   0.74594
C          C       0.52217   0.40986   0.74594
C          C       0.58140   0.12486   0.76273
C          C       0.87514   0.45654   0.76273
C          C       0.54346   0.41860   0.76273
C          C       0.56051   0.11591   0.80759
C          C       0.88409   0.44460   0.80759
C          C       0.55540   0.43949   0.80759
C          C       0.54866   0.09480   0.83588
C          C       0.90520   0.45386   0.83588
C          C       0.54614   0.45134   0.83588
C          C       0.59431   0.14714   0.73464
C          C       0.85286   0.44717   0.73464
C          C       0.55283   0.40569   0.73464
N          N       0.58657   0.15908   0.74856
N          N       0.84092   0.42749   0.74856
N          N       0.57251   0.41343   0.74856
N          N       0.15938   0.58596   0.69706
N          N       0.41404   0.57342   0.69706
N          N       0.42658   0.84062   0.69706
N          N       0.32355   0.67759   0.58467
N          N       0.32241   0.64596   0.58467
N          N       0.35404   0.67645   0.58467
C          C       0.31249   0.65682   0.58450
C          C       0.34318   0.65567   0.58450
C          C       0.34433   0.68751   0.58450
C          C       0.35627   0.71012   0.58947
C          C       0.28988   0.64615   0.58947
C          C       0.35385   0.64373   0.58947
C          C       0.37723   0.72058   0.54668
C          C       0.27942   0.65665   0.54668
C          C       0.34335   0.62277   0.54668
C          C       0.38861   0.74192   0.55556
C          C       0.25808   0.64669   0.55556
C          C       0.35331   0.61139   0.55556
C          C       0.37933   0.75330   0.60962
C          C       0.24670   0.62603   0.60962
C          C       0.37397   0.62067   0.60962
C          C       0.35831   0.74278   0.65152
C          C       0.25722   0.61553   0.65152
C          C       0.38447   0.64169   0.65152
C          C       0.34689   0.72146   0.64039
C          C       0.27854   0.62543   0.64039
C          C       0.37457   0.65311   0.64039
C          C       0.39157   0.77597   0.62594
C          C       0.22403   0.61560   0.62594
C          C       0.38440   0.60843   0.62594
C          C       0.41195   0.78561   0.68882
C          C       0.21439   0.62634   0.68882
C          C       0.37366   0.58805   0.68882
C          C       0.42326   0.80685   0.70847
C          C       0.19315   0.61641   0.70847
C          C       0.38359   0.57674   0.70847
C          C       0.41445   0.81891   0.66895
C          C       0.18109   0.59554   0.66895
C          C       0.40446   0.58555   0.66895
C          C       0.39423   0.80943   0.60214
C          C       0.19057   0.58480   0.60214
C          C       0.41520   0.60577   0.60214
C          C       0.38295   0.78819   0.58077
C          C       0.21181   0.59476   0.58077
C          C       0.40524   0.61705   0.58077
N          N       0.64599   0.32201   0.67095
N          N       0.67799   0.32398   0.67095
N          N       0.67602   0.35401   0.67095
C          C       0.65725   0.31251   0.67084
C          C       0.68749   0.34474   0.67084
C          C       0.65526   0.34275   0.67084
C          C       0.64289   0.35298   0.67419
C          C       0.64702   0.28991   0.67419
C          C       0.71009   0.35711   0.67419
C          C       0.65183   0.37388   0.63164
C          C       0.62612   0.27795   0.63164
C          C       0.72205   0.34817   0.63164
C          C       0.64021   0.38360   0.63735
C          C       0.61640   0.25661   0.63735
C          C       0.74339   0.35979   0.63735
C          C       0.61943   0.37270   0.68773
C          C       0.62730   0.24673   0.68773
C          C       0.75327   0.38057   0.68773
C          C       0.61051   0.35176   0.72995
C          C       0.64824   0.25875   0.72995
C          C       0.74125   0.38949   0.72995
C          C       0.62207   0.34199   0.72220
C          C       0.65801   0.28008   0.72220
C          C       0.71992   0.37793   0.72220
C          C       0.60718   0.38314   0.69866
C          C       0.61686   0.22404   0.69866
C          C       0.77596   0.39282   0.69866
C          C       0.61607   0.40342   0.76258
C          C       0.59658   0.21265   0.76258
C          C       0.78735   0.38393   0.76258
C          C       0.60445   0.41309   0.77579
C          C       0.58691   0.19136   0.77579
C          C       0.80864   0.39555   0.77579
C          C       0.58372   0.40277   0.72741
C          C       0.59723   0.18095   0.72741
C          C       0.81905   0.41628   0.72741
C          C       0.57479   0.38255   0.66069
C          C       0.61745   0.19224   0.66069
C          C       0.80776   0.42521   0.66069
C          C       0.58644   0.37289   0.64655
C          C       0.62711   0.21355   0.64655
C          C       0.78645   0.41356   0.64655
O          O       0.52959   0.97509   0.88319
O          O       0.02491   0.55450   0.88319
O          O       0.44550   0.47041   0.88319
O          O       0.98412   0.53783   0.88506
O          O       0.46217   0.44629   0.88506
O          O       0.55371   0.01588   0.88506
C          C       0.43439   0.47740   0.99258
C          C       0.52260   0.95699   0.99258
C          C       0.04301   0.56561   0.99258
C          C       0.46553   0.43245   0.99482
C          C       0.56755   0.03308   0.99482
C          C       0.96692   0.53447   0.99482
H          H       0.01572   0.48904   0.91834
H          H       0.51096   0.52668   0.91834
H          H       0.47332   0.98428   0.91834
H          H       0.08136   0.51347   0.84229
H          H       0.48653   0.56789   0.84229
H          H       0.43211   0.91864   0.84229
H          H       0.11809   0.52726   0.78690
H          H       0.47274   0.59083   0.78690
H          H       0.40917   0.88191   0.78690
H          H       0.12598   0.58765   0.71736
H          H       0.41235   0.53833   0.71736
H          H       0.46167   0.87402   0.71736
H          H       0.08929   0.57371   0.77219
H          H       0.42629   0.51558   0.77219
H          H       0.48442   0.91071   0.77219
H          H       0.15254   0.55582   0.72070
H          H       0.44418   0.59672   0.72070
H          H       0.40328   0.84746   0.72070
H          H       0.49530   0.02147   0.91980
H          H       0.97853   0.47383   0.91980
H          H       0.52617   0.50470   0.91980
H          H       0.58524   0.08175   0.76043
H          H       0.91825   0.50349   0.76043
H          H       0.49651   0.41476   0.76043
H          H       0.60617   0.11885   0.71109
H          H       0.88115   0.48732   0.71109
H          H       0.51268   0.39383   0.71109
H          H       0.55335   0.12520   0.82188
H          H       0.87480   0.42815   0.82188
H          H       0.57185   0.44665   0.82188
H          H       0.53263   0.08815   0.87136
H          H       0.91185   0.44448   0.87136
H          H       0.55552   0.46737   0.87136
H          H       0.61039   0.15324   0.70636
H          H       0.84676   0.45715   0.70636
H          H       0.54285   0.38961   0.70636
H          H       0.38485   0.71229   0.50476
H          H       0.28771   0.67256   0.50476
H          H       0.32744   0.61515   0.50476
H          H       0.40464   0.74950   0.51828
H          H       0.25050   0.65514   0.51828
H          H       0.34486   0.59536   0.51828
H          H       0.35074   0.75097   0.69757
H          H       0.24903   0.59977   0.69757
H          H       0.40023   0.64926   0.69757
H          H       0.33081   0.71385   0.67615
H          H       0.28615   0.61696   0.67615
H          H       0.38304   0.66919   0.67615
H          H       0.41903   0.77673   0.72757
H          H       0.22327   0.64230   0.72757
H          H       0.35770   0.58097   0.72757
H          H       0.43883   0.81394   0.75930
H          H       0.18606   0.62489   0.75930
H          H       0.37511   0.56117   0.75930
H          H       0.38717   0.81830   0.56271
H          H       0.18170   0.56887   0.56271
H          H       0.43113   0.61283   0.56271
H          H       0.36755   0.78137   0.52613
H          H       0.21863   0.58618   0.52613
H          H       0.41382   0.63245   0.52613
H          H       0.66778   0.38272   0.59203
H          H       0.61728   0.28506   0.59203
H          H       0.71494   0.33222   0.59203
H          H       0.64748   0.39962   0.60009
H          H       0.60038   0.24786   0.60009
H          H       0.75214   0.35252   0.60009
H          H       0.59468   0.34299   0.77313
H          H       0.65701   0.25169   0.77313
H          H       0.74831   0.40532   0.77313
H          H       0.61478   0.32592   0.75767
H          H       0.67408   0.28886   0.75767
H          H       0.71114   0.38522   0.75767
H          H       0.63189   0.41169   0.80686
H          H       0.58831   0.22020   0.80686
H          H       0.77980   0.36811   0.80686
H          H       0.61155   0.42864   0.82745
H          H       0.57136   0.18291   0.82745
H          H       0.81709   0.38845   0.82745
H          H       0.55903   0.37415   0.61633
H          H       0.62585   0.18488   0.61633
H          H       0.81512   0.44097   0.61633
H          H       0.57925   0.35748   0.59169
H          H       0.64252   0.22177   0.59169
H          H       0.77823   0.42075   0.59169
H          H       0.42208   0.46419   0.56855
H          H       0.53581   0.95789   0.56855
H          H       0.04211   0.57792   0.56855
H          H       0.42713   0.48371   0.90022
H          H       0.51629   0.94342   0.90022
H          H       0.05658   0.57287   0.90022
H          H       0.44405   0.48919   0.59567
H          H       0.51081   0.95486   0.59567
H          H       0.04514   0.55595   0.59567
H          H       0.46924   0.42298   0.90275
H          H       0.57702   0.04626   0.90275
H          H       0.95374   0.53076   0.90275
H          H       0.45123   0.42209   0.57063
H          H       0.57791   0.02914   0.57063
H          H       0.97086   0.54877   0.57063
H          H       0.47794   0.44026   0.59809
H          H       0.55974   0.03768   0.59809
H          H       0.96232   0.52206   0.59809
