data_crystal

_cell_length_a    75.95990
_cell_length_b    75.95990
_cell_length_c    7.02620
_cell_angle_alpha 90.00000
_cell_angle_beta  90.00000
_cell_angle_gamma 120.00000

_space_group_name_Hall 'P 1'
_space_group_name_H-M_alt 'P 1'

loop_
_symmetry_equiv_pos_as_xyz
 'x,y,z'

loop_
_atom_site_label
_atom_site_type_symbol
_atom_site_fract_x
_atom_site_fract_y
_atom_site_fract_z
C          C       0.99144   0.51258   0.24545
C          C       0.48742   0.47886   0.24545
C          C       0.52114   0.00856   0.24545
C          C       0.00856   0.48742   0.24545
C          C       0.51258   0.52114   0.24545
C          C       0.47886   0.99144   0.24545
C          C       0.97884   0.49142   0.24548
C          C       0.50858   0.48742   0.24548
C          C       0.51258   0.02116   0.24548
C          C       0.02116   0.50858   0.24548
C          C       0.49142   0.51258   0.24548
C          C       0.48742   0.97884   0.24548
C          C       0.98743   0.47885   0.24545
C          C       0.52115   0.50858   0.24545
C          C       0.49142   0.01257   0.24545
C          C       0.01257   0.52115   0.24545
C          C       0.47885   0.49142   0.24545
C          C       0.50858   0.98743   0.24545
C          C       0.95711   0.48261   0.24573
C          C       0.51739   0.47450   0.24573
C          C       0.52550   0.04289   0.24573
C          C       0.04289   0.51739   0.24573
C          C       0.48261   0.52550   0.24573
C          C       0.47450   0.95711   0.24573
C          C       0.93890   0.47523   0.24604
C          C       0.52477   0.46367   0.24604
C          C       0.53633   0.06110   0.24604
C          C       0.06110   0.52477   0.24604
C          C       0.47523   0.53633   0.24604
C          C       0.46367   0.93890   0.24604
C          C       0.91718   0.46642   0.24653
C          C       0.53358   0.45076   0.24653
C          C       0.54924   0.08282   0.24653
C          C       0.08282   0.53358   0.24653
C          C       0.46642   0.54924   0.24653
C          C       0.45076   0.91718   0.24653
C          C       0.90858   0.47897   0.24733
C          C       0.52103   0.42961   0.24733
C          C       0.57039   0.09142   0.24733
C          C       0.09142   0.52103   0.24733
C          C       0.47897   0.57039   0.24733
C          C       0.42961   0.90858   0.24733
C          C       0.88746   0.47041   0.24805
C          C       0.52959   0.41705   0.24805
C          C       0.58295   0.11254   0.24805
C          C       0.11254   0.52959   0.24805
C          C       0.47041   0.58295   0.24805
C          C       0.41705   0.88746   0.24805
C          C       0.87471   0.44922   0.24795
C          C       0.55078   0.42549   0.24795
C          C       0.57451   0.12529   0.24795
C          C       0.12529   0.55078   0.24795
C          C       0.44922   0.57451   0.24795
C          C       0.42549   0.87471   0.24795
C          C       0.88346   0.43669   0.24714
C          C       0.56331   0.44677   0.24714
C          C       0.55323   0.11654   0.24714
C          C       0.11654   0.56331   0.24714
C          C       0.43669   0.55323   0.24714
C          C       0.44677   0.88346   0.24714
C          C       0.90459   0.44528   0.24642
C          C       0.55472   0.45931   0.24642
C          C       0.54069   0.09541   0.24642
C          C       0.09541   0.55472   0.24642
C          C       0.44528   0.54069   0.24642
C          C       0.45931   0.90459   0.24642
C          C       0.85246   0.44055   0.24904
C          C       0.55945   0.41191   0.24904
C          C       0.58809   0.14754   0.24904
C          C       0.14754   0.55945   0.24904
C          C       0.44055   0.58809   0.24904
C          C       0.41191   0.85246   0.24904
N          N       0.41931   0.84030   0.24597
N          N       0.15970   0.57901   0.24597
N          N       0.42099   0.58069   0.24597
N          N       0.58069   0.15970   0.24597
N          N       0.84030   0.42099   0.24597
N          N       0.57901   0.41931   0.24597
N          N       0.67714   0.32324   0.25407
N          N       0.67676   0.35390   0.25407
N          N       0.64610   0.32286   0.25407
N          N       0.32286   0.67676   0.25407
N          N       0.32324   0.64610   0.25407
N          N       0.35390   0.67714   0.25407
C          C       0.68738   0.34388   0.25407
C          C       0.65612   0.34350   0.25407
C          C       0.65650   0.31262   0.25407
C          C       0.31262   0.65612   0.25407
C          C       0.34388   0.65650   0.25407
C          C       0.34350   0.68738   0.25407
C          C       0.64547   0.29013   0.25387
C          C       0.70987   0.35534   0.25387
C          C       0.64466   0.35453   0.25387
C          C       0.35453   0.70987   0.25387
C          C       0.29013   0.64466   0.25387
C          C       0.35534   0.64547   0.25387
C          C       0.62468   0.27909   0.29873
C          C       0.72091   0.34559   0.29873
C          C       0.65441   0.37532   0.29873
C          C       0.37532   0.72091   0.29873
C          C       0.27909   0.65441   0.29873
C          C       0.34559   0.62468   0.29873
C          C       0.61428   0.25786   0.29965
C          C       0.74214   0.35642   0.29965
C          C       0.64358   0.38572   0.29965
C          C       0.38572   0.74214   0.29965
C          C       0.25786   0.64358   0.29965
C          C       0.35642   0.61428   0.29965
C          C       0.62436   0.24714   0.25304
C          C       0.75286   0.37722   0.25304
C          C       0.62278   0.37564   0.25304
C          C       0.37564   0.75286   0.25304
C          C       0.24714   0.62278   0.25304
C          C       0.37722   0.62436   0.25304
C          C       0.64515   0.25825   0.20697
C          C       0.74175   0.38690   0.20697
C          C       0.61310   0.35485   0.20697
C          C       0.35485   0.74175   0.20697
C          C       0.25825   0.61310   0.20697
C          C       0.38690   0.64515   0.20697
C          C       0.65561   0.27948   0.20870
C          C       0.72052   0.37613   0.20870
C          C       0.62387   0.34439   0.20870
C          C       0.34439   0.72052   0.20870
C          C       0.27948   0.62387   0.20870
C          C       0.37613   0.65561   0.20870
C          C       0.61324   0.22450   0.25228
C          C       0.77550   0.38874   0.25228
C          C       0.61126   0.38676   0.25228
C          C       0.38676   0.77550   0.25228
C          C       0.22450   0.61126   0.25228
C          C       0.38874   0.61324   0.25228
C          C       0.59269   0.21341   0.19753
C          C       0.78659   0.37928   0.19753
C          C       0.62072   0.40731   0.19753
C          C       0.40731   0.78659   0.19753
C          C       0.21341   0.62072   0.19753
C          C       0.37928   0.59269   0.19753
C          C       0.58229   0.19219   0.19744
C          C       0.80781   0.39010   0.19744
C          C       0.60990   0.41771   0.19744
C          C       0.41771   0.80781   0.19744
C          C       0.19219   0.60990   0.19744
C          C       0.39010   0.58229   0.19744
C          C       0.59217   0.18153   0.24863
C          C       0.81847   0.41064   0.24863
C          C       0.58936   0.40783   0.24863
C          C       0.40783   0.81847   0.24863
C          C       0.18153   0.58936   0.24863
C          C       0.41064   0.59217   0.24863
C          C       0.61268   0.19251   0.30517
C          C       0.80749   0.42017   0.30517
C          C       0.57983   0.38732   0.30517
C          C       0.38732   0.80749   0.30517
C          C       0.19251   0.57983   0.30517
C          C       0.42017   0.61268   0.30517
C          C       0.62306   0.21375   0.30702
C          C       0.78625   0.40931   0.30702
C          C       0.59069   0.37694   0.30702
C          C       0.37694   0.78625   0.30702
C          C       0.21375   0.59069   0.30702
C          C       0.40931   0.62306   0.30702
H          H       0.98494   0.52244   0.24549
H          H       0.47756   0.46250   0.24549
H          H       0.53750   0.01506   0.24549
H          H       0.01506   0.47756   0.24549
H          H       0.52244   0.53750   0.24549
H          H       0.46250   0.98494   0.24549
H          H       0.97782   0.46247   0.24549
H          H       0.53753   0.51535   0.24549
H          H       0.48465   0.02218   0.24549
H          H       0.02218   0.53753   0.24549
H          H       0.46247   0.48465   0.24549
H          H       0.51535   0.97782   0.24549
H          H       0.91819   0.49535   0.24747
H          H       0.50465   0.42284   0.24747
H          H       0.57716   0.08181   0.24747
H          H       0.08181   0.50465   0.24747
H          H       0.49535   0.57716   0.24747
H          H       0.42284   0.91819   0.24747
H          H       0.88106   0.48036   0.24875
H          H       0.51964   0.40070   0.24875
H          H       0.59930   0.11894   0.24875
H          H       0.11894   0.51964   0.24875
H          H       0.48036   0.59930   0.24875
H          H       0.40070   0.88106   0.24875
H          H       0.87403   0.42030   0.24716
H          H       0.57970   0.45373   0.24716
H          H       0.54627   0.12597   0.24716
H          H       0.12597   0.57970   0.24716
H          H       0.42030   0.54627   0.24716
H          H       0.45373   0.87403   0.24716
H          H       0.91110   0.43544   0.24585
H          H       0.56456   0.47566   0.24585
H          H       0.52434   0.08890   0.24585
H          H       0.08890   0.56456   0.24585
H          H       0.43544   0.52434   0.24585
H          H       0.47566   0.91110   0.24585
H          H       0.84654   0.45087   0.24824
H          H       0.54913   0.39567   0.24824
H          H       0.60433   0.15346   0.24824
H          H       0.15346   0.54913   0.24824
H          H       0.45087   0.60433   0.24824
H          H       0.39567   0.84654   0.24824
H          H       0.61648   0.28685   0.33635
H          H       0.71315   0.32963   0.33635
H          H       0.67037   0.38352   0.33635
H          H       0.38352   0.71315   0.33635
H          H       0.28685   0.67037   0.33635
H          H       0.32963   0.61648   0.33635
H          H       0.59842   0.24988   0.34034
H          H       0.75012   0.34854   0.34034
H          H       0.65146   0.40158   0.34034
H          H       0.40158   0.75012   0.34034
H          H       0.24988   0.65146   0.34034
H          H       0.34854   0.59842   0.34034
H          H       0.65333   0.25057   0.16599
H          H       0.74943   0.40276   0.16599
H          H       0.59724   0.34667   0.16599
H          H       0.34667   0.74943   0.16599
H          H       0.25057   0.59724   0.16599
H          H       0.40276   0.65333   0.16599
H          H       0.67158   0.28754   0.17137
H          H       0.71246   0.38404   0.17137
H          H       0.61596   0.32842   0.17137
H          H       0.32842   0.71246   0.17137
H          H       0.28754   0.61596   0.17137
H          H       0.38404   0.67158   0.17137
H          H       0.58470   0.22110   0.15103
H          H       0.77890   0.36360   0.15103
H          H       0.63640   0.41530   0.15103
H          H       0.41530   0.77890   0.15103
H          H       0.22110   0.63640   0.15103
H          H       0.36360   0.58470   0.15103
H          H       0.56650   0.18396   0.15418
H          H       0.81604   0.38254   0.15418
H          H       0.61746   0.43350   0.15418
H          H       0.43350   0.81604   0.15418
H          H       0.18396   0.61746   0.15418
H          H       0.38254   0.56650   0.15418
H          H       0.62067   0.18490   0.35298
H          H       0.81510   0.43577   0.35298
H          H       0.56423   0.37933   0.35298
H          H       0.37933   0.81510   0.35298
H          H       0.18490   0.56423   0.35298
H          H       0.43577   0.62067   0.35298
H          H       0.63866   0.22172   0.35587
H          H       0.77828   0.41694   0.35587
H          H       0.58306   0.36134   0.35587
H          H       0.36134   0.77828   0.35587
H          H       0.22172   0.58306   0.35587
H          H       0.41694   0.63866   0.35587
C          C       0.99144   0.51258   0.74545
C          C       0.48742   0.47886   0.74545
C          C       0.52114   0.00856   0.74545
C          C       0.00856   0.48742   0.74545
C          C       0.51258   0.52114   0.74545
C          C       0.47886   0.99144   0.74545
C          C       0.97884   0.49142   0.74548
C          C       0.50858   0.48742   0.74548
C          C       0.51258   0.02116   0.74548
C          C       0.02116   0.50858   0.74548
C          C       0.49142   0.51258   0.74548
C          C       0.48742   0.97884   0.74548
C          C       0.98743   0.47885   0.74545
C          C       0.52115   0.50858   0.74545
C          C       0.49142   0.01257   0.74545
C          C       0.01257   0.52115   0.74545
C          C       0.47885   0.49142   0.74545
C          C       0.50858   0.98743   0.74545
C          C       0.95711   0.48261   0.74572
C          C       0.51739   0.47450   0.74572
C          C       0.52550   0.04289   0.74572
C          C       0.04289   0.51739   0.74572
C          C       0.48261   0.52550   0.74572
C          C       0.47450   0.95711   0.74572
C          C       0.93890   0.47523   0.74604
C          C       0.52477   0.46367   0.74604
C          C       0.53633   0.06110   0.74604
C          C       0.06110   0.52477   0.74604
C          C       0.47523   0.53633   0.74604
C          C       0.46367   0.93890   0.74604
C          C       0.91718   0.46642   0.74653
C          C       0.53358   0.45076   0.74653
C          C       0.54924   0.08282   0.74653
C          C       0.08282   0.53358   0.74653
C          C       0.46642   0.54924   0.74653
C          C       0.45076   0.91718   0.74653
C          C       0.90858   0.47897   0.74733
C          C       0.52103   0.42961   0.74733
C          C       0.57039   0.09142   0.74733
C          C       0.09142   0.52103   0.74733
C          C       0.47897   0.57039   0.74733
C          C       0.42961   0.90858   0.74733
C          C       0.88746   0.47041   0.74805
C          C       0.52959   0.41705   0.74805
C          C       0.58295   0.11254   0.74805
C          C       0.11254   0.52959   0.74805
C          C       0.47041   0.58295   0.74805
C          C       0.41705   0.88746   0.74805
C          C       0.87471   0.44922   0.74795
C          C       0.55078   0.42549   0.74795
C          C       0.57451   0.12529   0.74795
C          C       0.12529   0.55078   0.74795
C          C       0.44922   0.57451   0.74795
C          C       0.42549   0.87471   0.74795
C          C       0.88346   0.43669   0.74714
C          C       0.56331   0.44677   0.74714
C          C       0.55323   0.11654   0.74714
C          C       0.11654   0.56331   0.74714
C          C       0.43669   0.55323   0.74714
C          C       0.44677   0.88346   0.74714
C          C       0.90459   0.44528   0.74642
C          C       0.55472   0.45931   0.74642
C          C       0.54069   0.09541   0.74642
C          C       0.09541   0.55472   0.74642
C          C       0.44528   0.54069   0.74642
C          C       0.45931   0.90459   0.74642
C          C       0.85246   0.44055   0.74904
C          C       0.55945   0.41191   0.74904
C          C       0.58809   0.14754   0.74904
C          C       0.14754   0.55945   0.74904
C          C       0.44055   0.58809   0.74904
C          C       0.41191   0.85246   0.74904
N          N       0.41931   0.84030   0.74598
N          N       0.15970   0.57901   0.74598
N          N       0.42099   0.58069   0.74598
N          N       0.58069   0.15970   0.74598
N          N       0.84030   0.42099   0.74598
N          N       0.57901   0.41931   0.74598
N          N       0.67714   0.32324   0.75407
N          N       0.67676   0.35390   0.75407
N          N       0.64610   0.32286   0.75407
N          N       0.32286   0.67676   0.75407
N          N       0.32324   0.64610   0.75407
N          N       0.35390   0.67714   0.75407
C          C       0.68738   0.34388   0.75407
C          C       0.65612   0.34350   0.75407
C          C       0.65650   0.31262   0.75407
C          C       0.31262   0.65612   0.75407
C          C       0.34388   0.65650   0.75407
C          C       0.34350   0.68738   0.75407
C          C       0.64547   0.29013   0.75387
C          C       0.70987   0.35534   0.75387
C          C       0.64466   0.35453   0.75387
C          C       0.35453   0.70987   0.75387
C          C       0.29013   0.64466   0.75387
C          C       0.35534   0.64547   0.75387
C          C       0.62468   0.27909   0.79873
C          C       0.72091   0.34559   0.79873
C          C       0.65441   0.37532   0.79873
C          C       0.37532   0.72091   0.79873
C          C       0.27909   0.65441   0.79873
C          C       0.34559   0.62468   0.79873
C          C       0.61428   0.25786   0.79965
C          C       0.74214   0.35642   0.79965
C          C       0.64358   0.38572   0.79965
C          C       0.38572   0.74214   0.79965
C          C       0.25786   0.64358   0.79965
C          C       0.35642   0.61428   0.79965
C          C       0.62436   0.24714   0.75304
C          C       0.75286   0.37722   0.75304
C          C       0.62278   0.37564   0.75304
C          C       0.37564   0.75286   0.75304
C          C       0.24714   0.62278   0.75304
C          C       0.37722   0.62436   0.75304
C          C       0.64515   0.25825   0.70696
C          C       0.74175   0.38690   0.70696
C          C       0.61310   0.35485   0.70696
C          C       0.35485   0.74175   0.70696
C          C       0.25825   0.61310   0.70696
C          C       0.38690   0.64515   0.70696
C          C       0.65561   0.27948   0.70870
C          C       0.72052   0.37613   0.70870
C          C       0.62387   0.34439   0.70870
C          C       0.34439   0.72052   0.70870
C          C       0.27948   0.62387   0.70870
C          C       0.37613   0.65561   0.70870
C          C       0.61324   0.22450   0.75228
C          C       0.77550   0.38874   0.75228
C          C       0.61126   0.38676   0.75228
C          C       0.38676   0.77550   0.75228
C          C       0.22450   0.61126   0.75228
C          C       0.38874   0.61324   0.75228
C          C       0.59269   0.21341   0.69753
C          C       0.78659   0.37928   0.69753
C          C       0.62072   0.40731   0.69753
C          C       0.40731   0.78659   0.69753
C          C       0.21341   0.62072   0.69753
C          C       0.37928   0.59269   0.69753
C          C       0.58229   0.19219   0.69744
C          C       0.80781   0.39010   0.69744
C          C       0.60990   0.41771   0.69744
C          C       0.41771   0.80781   0.69744
C          C       0.19219   0.60990   0.69744
C          C       0.39010   0.58229   0.69744
C          C       0.59217   0.18153   0.74863
C          C       0.81847   0.41064   0.74863
C          C       0.58936   0.40783   0.74863
C          C       0.40783   0.81847   0.74863
C          C       0.18153   0.58936   0.74863
C          C       0.41064   0.59217   0.74863
C          C       0.61268   0.19251   0.80517
C          C       0.80749   0.42017   0.80517
C          C       0.57983   0.38732   0.80517
C          C       0.38732   0.80749   0.80517
C          C       0.19251   0.57983   0.80517
C          C       0.42017   0.61268   0.80517
C          C       0.62306   0.21375   0.80702
C          C       0.78625   0.40931   0.80702
C          C       0.59069   0.37694   0.80702
C          C       0.37694   0.78625   0.80702
C          C       0.21375   0.59069   0.80702
C          C       0.40931   0.62306   0.80702
H          H       0.98494   0.52244   0.74549
H          H       0.47756   0.46250   0.74549
H          H       0.53750   0.01506   0.74549
H          H       0.01506   0.47756   0.74549
H          H       0.52244   0.53750   0.74549
H          H       0.46250   0.98494   0.74549
H          H       0.97782   0.46247   0.74549
H          H       0.53753   0.51535   0.74549
H          H       0.48465   0.02218   0.74549
H          H       0.02218   0.53753   0.74549
H          H       0.46247   0.48465   0.74549
H          H       0.51535   0.97782   0.74549
H          H       0.91819   0.49535   0.74747
H          H       0.50465   0.42284   0.74747
H          H       0.57716   0.08181   0.74747
H          H       0.08181   0.50465   0.74747
H          H       0.49535   0.57716   0.74747
H          H       0.42284   0.91819   0.74747
H          H       0.88106   0.48036   0.74875
H          H       0.51964   0.40070   0.74875
H          H       0.59930   0.11894   0.74875
H          H       0.11894   0.51964   0.74875
H          H       0.48036   0.59930   0.74875
H          H       0.40070   0.88106   0.74875
H          H       0.87403   0.42030   0.74716
H          H       0.57970   0.45373   0.74716
H          H       0.54627   0.12597   0.74716
H          H       0.12597   0.57970   0.74716
H          H       0.42030   0.54627   0.74716
H          H       0.45373   0.87403   0.74716
H          H       0.91110   0.43544   0.74585
H          H       0.56456   0.47566   0.74585
H          H       0.52434   0.08890   0.74585
H          H       0.08890   0.56456   0.74585
H          H       0.43544   0.52434   0.74585
H          H       0.47566   0.91110   0.74585
H          H       0.84654   0.45087   0.74824
H          H       0.54913   0.39567   0.74824
H          H       0.60433   0.15346   0.74824
H          H       0.15346   0.54913   0.74824
H          H       0.45087   0.60433   0.74824
H          H       0.39567   0.84654   0.74824
H          H       0.61648   0.28685   0.83635
H          H       0.71315   0.32963   0.83635
H          H       0.67037   0.38352   0.83635
H          H       0.38352   0.71315   0.83635
H          H       0.28685   0.67037   0.83635
H          H       0.32963   0.61648   0.83635
H          H       0.59842   0.24988   0.84034
H          H       0.75012   0.34854   0.84034
H          H       0.65146   0.40158   0.84034
H          H       0.40158   0.75012   0.84034
H          H       0.24988   0.65146   0.84034
H          H       0.34854   0.59842   0.84034
H          H       0.65333   0.25057   0.66599
H          H       0.74943   0.40276   0.66599
H          H       0.59724   0.34667   0.66599
H          H       0.34667   0.74943   0.66599
H          H       0.25057   0.59724   0.66599
H          H       0.40276   0.65333   0.66599
H          H       0.67158   0.28754   0.67137
H          H       0.71246   0.38404   0.67137
H          H       0.61596   0.32842   0.67137
H          H       0.32842   0.71246   0.67137
H          H       0.28754   0.61596   0.67137
H          H       0.38404   0.67158   0.67137
H          H       0.58470   0.22110   0.65104
H          H       0.77890   0.36360   0.65104
H          H       0.63640   0.41530   0.65104
H          H       0.41530   0.77890   0.65104
H          H       0.22110   0.63640   0.65104
H          H       0.36360   0.58470   0.65104
H          H       0.56650   0.18396   0.65418
H          H       0.81604   0.38254   0.65418
H          H       0.61746   0.43350   0.65418
H          H       0.43350   0.81604   0.65418
H          H       0.18396   0.61746   0.65418
H          H       0.38254   0.56650   0.65418
H          H       0.62067   0.18490   0.85298
H          H       0.81510   0.43577   0.85298
H          H       0.56423   0.37933   0.85298
H          H       0.37933   0.81510   0.85298
H          H       0.18490   0.56423   0.85298
H          H       0.43577   0.62067   0.85298
H          H       0.63866   0.22172   0.85587
H          H       0.77828   0.41694   0.85587
H          H       0.58306   0.36134   0.85587
H          H       0.36134   0.77828   0.85587
H          H       0.22172   0.58306   0.85587
H          H       0.41694   0.63866   0.85587
