data_crystal

_cell_length_a    98.71420
_cell_length_b    98.71420
_cell_length_c    7.17960
_cell_angle_alpha 90.00000
_cell_angle_beta  90.00000
_cell_angle_gamma 120.00000

_space_group_name_Hall 'P 1'
_space_group_name_H-M_alt 'P 1'

loop_
_symmetry_equiv_pos_as_xyz
 'x,y,z'

loop_
_atom_site_label
_atom_site_type_symbol
_atom_site_fract_x
_atom_site_fract_y
_atom_site_fract_z
N          N       0.34912   0.67562   0.04002
N          N       0.32438   0.67350   0.04002
N          N       0.32650   0.65088   0.04002
C          C       0.31744   0.65766   0.03987
C          C       0.34234   0.65978   0.03987
C          C       0.34022   0.68256   0.03987
C          C       0.35213   0.65232   0.04416
C          C       0.34768   0.69981   0.04416
C          C       0.30019   0.64787   0.04416
C          C       0.34559   0.63650   0.09325
C          C       0.36350   0.70909   0.09325
C          C       0.29091   0.65441   0.09325
C          C       0.35492   0.62957   0.10297
C          C       0.37043   0.72535   0.10297
C          C       0.27465   0.64508   0.10297
C          C       0.37098   0.63825   0.06152
C          C       0.36175   0.73273   0.06152
C          C       0.26727   0.62902   0.06152
C          C       0.37745   0.65403   0.00966
C          C       0.34597   0.72342   0.00966
C          C       0.27658   0.62255   0.00966
C          C       0.36816   0.66100   0.00210
C          C       0.33900   0.70716   0.00210
C          C       0.29284   0.63184   0.00210
C          C       0.38098   0.63095   0.07558
C          C       0.36905   0.75003   0.07558
C          C       0.24997   0.61902   0.07558
C          C       0.37505   0.61516   0.02756
C          C       0.38484   0.75989   0.02756
C          C       0.24011   0.62495   0.02756
C          C       0.38433   0.60823   0.04598
C          C       0.39177   0.77610   0.04598
C          C       0.22390   0.61567   0.04598
C          C       0.39975   0.61690   0.10987
C          C       0.38310   0.78285   0.10987
C          C       0.21715   0.60025   0.10987
C          C       0.40576   0.63272   0.15773
C          C       0.36728   0.77304   0.15773
C          C       0.22696   0.59424   0.15773
C          C       0.39646   0.63964   0.14043
C          C       0.36036   0.75682   0.14043
C          C       0.24318   0.60354   0.14043
C          C       0.00939   0.50629   0.02280
C          C       0.49371   0.50310   0.02280
C          C       0.49690   0.99061   0.02280
C          C       0.00690   0.48047   0.00918
C          C       0.51953   0.52643   0.00918
C          C       0.47357   0.99310   0.00918
C          C       0.01636   0.49701   0.00910
C          C       0.50299   0.51935   0.00910
C          C       0.48065   0.98364   0.00910
C          C       0.16734   0.57783   0.18910
C          C       0.42217   0.58951   0.18910
C          C       0.41049   0.83266   0.18910
C          C       0.15122   0.57053   0.21973
C          C       0.42947   0.58069   0.21973
C          C       0.41931   0.84878   0.21973
C          C       0.14252   0.55434   0.24763
C          C       0.44566   0.58818   0.24763
C          C       0.41182   0.85748   0.24763
C          C       0.14999   0.54546   0.24389
C          C       0.45454   0.60453   0.24389
C          C       0.39547   0.85001   0.24389
C          C       0.16611   0.55275   0.21326
C          C       0.44725   0.61336   0.21326
C          C       0.38664   0.83389   0.21326
C          C       0.17494   0.56899   0.18596
C          C       0.43101   0.60595   0.18596
C          C       0.39405   0.82506   0.18596
C          C       0.19199   0.57645   0.15732
C          C       0.42355   0.61554   0.15732
C          C       0.38446   0.80801   0.15732
N          N       0.20045   0.59146   0.13251
N          N       0.40854   0.60899   0.13251
N          N       0.39101   0.79955   0.13251
C          C       0.12598   0.54687   0.28153
C          C       0.45313   0.57911   0.28153
C          C       0.42089   0.87402   0.28153
C          C       0.11212   0.54062   0.31049
C          C       0.45938   0.57150   0.31049
C          C       0.42850   0.88788   0.31049
C          C       0.09558   0.53316   0.34545
C          C       0.46684   0.56242   0.34545
C          C       0.43758   0.90442   0.34545
C          C       0.08876   0.54219   0.39293
C          C       0.45781   0.54657   0.39293
C          C       0.45343   0.91124   0.39293
C          C       0.07269   0.53494   0.42702
C          C       0.46506   0.53775   0.42702
C          C       0.46225   0.92731   0.42702
C          C       0.06338   0.51866   0.41372
C          C       0.48134   0.54472   0.41372
C          C       0.45528   0.93662   0.41372
C          C       0.07019   0.50963   0.36599
C          C       0.49037   0.56056   0.36599
C          C       0.43944   0.92981   0.36599
C          C       0.08627   0.51688   0.33203
C          C       0.48312   0.56939   0.33203
C          C       0.43061   0.91373   0.33203
C          C       0.04686   0.51118   0.44876
C          C       0.48882   0.53568   0.44876
C          C       0.46432   0.95314   0.44876
C          C       0.03298   0.50477   0.47722
C          C       0.49523   0.52821   0.47722
C          C       0.47179   0.96702   0.47722
N          N       0.67469   0.32553   0.04050
N          N       0.67447   0.34916   0.04050
N          N       0.65084   0.32531   0.04050
C          C       0.65859   0.34119   0.04035
C          C       0.65881   0.31740   0.04035
C          C       0.68260   0.34141   0.04035
C          C       0.64981   0.34972   0.04464
C          C       0.65028   0.30009   0.04464
C          C       0.69991   0.35019   0.04464
C          C       0.65734   0.36561   0.09373
C          C       0.63439   0.29173   0.09373
C          C       0.70827   0.34266   0.09373
C          C       0.64895   0.37354   0.10343
C          C       0.62646   0.27541   0.10343
C          C       0.72459   0.35105   0.10343
C          C       0.63288   0.36582   0.06198
C          C       0.63418   0.26706   0.06198
C          C       0.73294   0.36712   0.06198
C          C       0.62542   0.34997   0.01012
C          C       0.65003   0.27545   0.01012
C          C       0.72455   0.37458   0.01012
C          C       0.63377   0.34199   0.00257
C          C       0.65801   0.29178   0.00257
C          C       0.70822   0.36623   0.00257
C          C       0.62389   0.37419   0.07601
C          C       0.62581   0.24970   0.07601
C          C       0.75030   0.37611   0.07601
C          C       0.63082   0.39010   0.02799
C          C       0.60990   0.24072   0.02799
C          C       0.75928   0.36918   0.02799
C          C       0.62249   0.39803   0.04638
C          C       0.60197   0.22446   0.04638
C          C       0.77554   0.37751   0.04638
C          C       0.60001   0.37434   0.15812
C          C       0.62566   0.22567   0.15812
C          C       0.77433   0.39999   0.15812
C          C       0.60836   0.36641   0.14084
C          C       0.63359   0.24195   0.14084
C          C       0.75805   0.39164   0.14084
C          C       0.50053   0.49372   0.02280
C          C       0.50628   0.00681   0.02280
C          C       0.99319   0.49947   0.02280
C          C       0.51676   0.50042   0.00909
C          C       0.49958   0.01634   0.00909
C          C       0.98366   0.48324   0.00909
C          C       0.52643   0.51694   0.00918
C          C       0.48306   0.00949   0.00918
C          C       0.99051   0.47357   0.00918
C          C       0.58774   0.42047   0.18948
C          C       0.57953   0.16727   0.18948
C          C       0.83273   0.41226   0.18948
C          C       0.58144   0.43020   0.22008
C          C       0.56980   0.15124   0.22008
C          C       0.84876   0.41856   0.22008
C          C       0.56534   0.42371   0.24774
C          C       0.57629   0.14163   0.24774
C          C       0.85837   0.43466   0.24774
C          C       0.55554   0.40747   0.24380
C          C       0.59253   0.14807   0.24380
C          C       0.85193   0.44446   0.24380
C          C       0.56181   0.39772   0.21319
C          C       0.60228   0.16409   0.21319
C          C       0.83591   0.43819   0.21319
C          C       0.57796   0.40412   0.18612
C          C       0.59588   0.17384   0.18612
C          C       0.82616   0.42204   0.18612
C          C       0.58434   0.39358   0.15749
C          C       0.60642   0.19076   0.15749
C          C       0.80924   0.41566   0.15749
N          N       0.59925   0.39918   0.13284
N          N       0.60082   0.20007   0.13284
N          N       0.79993   0.40075   0.13284
C          C       0.55890   0.43372   0.28161
C          C       0.56628   0.12518   0.28161
C          C       0.87482   0.44110   0.28161
C          C       0.55351   0.44210   0.31054
C          C       0.55790   0.11141   0.31054
C          C       0.88859   0.44649   0.31054
C          C       0.54708   0.45210   0.34547
C          C       0.54790   0.09498   0.34547
C          C       0.90502   0.45292   0.34547
C          C       0.55661   0.46837   0.33206
C          C       0.53163   0.08824   0.33206
C          C       0.91176   0.44339   0.33206
C          C       0.55035   0.47809   0.36600
C          C       0.52191   0.07226   0.36600
C          C       0.92774   0.44965   0.36600
C          C       0.53455   0.47158   0.41372
C          C       0.52842   0.06297   0.41372
C          C       0.93703   0.46545   0.41372
C          C       0.52501   0.45532   0.42701
C          C       0.54468   0.06969   0.42701
C          C       0.93031   0.47499   0.42701
C          C       0.53127   0.44559   0.39294
C          C       0.55441   0.08568   0.39294
C          C       0.91432   0.46873   0.39294
C          C       0.52815   0.48159   0.44876
C          C       0.51841   0.04656   0.44876
C          C       0.95344   0.47185   0.44876
C          C       0.52293   0.49013   0.47721
C          C       0.50987   0.03280   0.47721
C          C       0.96720   0.47707   0.47721
C          C       0.60703   0.39027   0.11024
C          C       0.60973   0.21676   0.11024
C          C       0.78324   0.39297   0.11024
O          O       0.45735   0.98701   0.48736
O          O       0.01299   0.47034   0.48736
O          O       0.52966   0.54265   0.48736
C          C       0.44685   0.97376   0.09660
C          C       0.02624   0.47309   0.09660
C          C       0.52691   0.55315   0.09660
O          O       0.54281   0.52457   0.48736
O          O       0.47543   0.01824   0.48736
O          O       0.98176   0.45719   0.48736
C          C       0.55146   0.51939   0.09660
C          C       0.48061   0.03207   0.09660
C          C       0.96793   0.44854   0.09660
H          H       0.33331   0.62953   0.12842
H          H       0.37047   0.70378   0.12842
H          H       0.29622   0.66669   0.12842
H          H       0.34960   0.61750   0.14743
H          H       0.38250   0.73210   0.14743
H          H       0.26790   0.65040   0.14743
H          H       0.38969   0.66098   0.47297
H          H       0.33902   0.72871   0.47297
H          H       0.27129   0.61031   0.47297
H          H       0.37351   0.67318   0.46166
H          H       0.32682   0.70033   0.46166
H          H       0.29967   0.62649   0.46166
H          H       0.36330   0.60818   0.47378
H          H       0.39182   0.75512   0.47378
H          H       0.24488   0.63670   0.47378
H          H       0.37951   0.59604   0.00921
H          H       0.40396   0.78347   0.00921
H          H       0.21653   0.62049   0.00921
H          H       0.41739   0.63970   0.21410
H          H       0.36030   0.77769   0.21410
H          H       0.22231   0.58261   0.21410
H          H       0.40128   0.65169   0.18352
H          H       0.34831   0.74959   0.18352
H          H       0.25041   0.59872   0.18352
H          H       0.01653   0.51893   0.02426
H          H       0.48107   0.49760   0.02426
H          H       0.50240   0.98347   0.02426
H          H       0.17384   0.59038   0.16856
H          H       0.40962   0.58346   0.16856
H          H       0.41654   0.82616   0.16856
H          H       0.14554   0.57750   0.22234
H          H       0.42250   0.56804   0.22234
H          H       0.43196   0.85446   0.22234
H          H       0.14337   0.53293   0.26555
H          H       0.46707   0.61044   0.26555
H          H       0.38956   0.85663   0.26555
H          H       0.17171   0.54570   0.21174
H          H       0.45430   0.62601   0.21174
H          H       0.37399   0.82829   0.21174
H          H       0.19722   0.56909   0.15631
H          H       0.43091   0.62813   0.15631
H          H       0.37187   0.80278   0.15631
H          H       0.09587   0.55479   0.40390
H          H       0.44521   0.54108   0.40390
H          H       0.45892   0.90413   0.40390
H          H       0.06753   0.54202   0.46409
H          H       0.45798   0.52551   0.46409
H          H       0.47449   0.93247   0.46409
H          H       0.06309   0.49703   0.35467
H          H       0.50297   0.56606   0.35467
H          H       0.43394   0.93691   0.35467
H          H       0.09143   0.50980   0.29491
H          H       0.49020   0.58163   0.29491
H          H       0.41837   0.90857   0.29491
H          H       0.66965   0.37186   0.12890
H          H       0.62814   0.29779   0.12890
H          H       0.70221   0.33035   0.12890
H          H       0.65501   0.38564   0.14788
H          H       0.61436   0.26937   0.14788
H          H       0.73063   0.34499   0.14788
H          H       0.61315   0.34373   0.47341
H          H       0.65627   0.26942   0.47341
H          H       0.73058   0.38685   0.47341
H          H       0.62767   0.32979   0.46213
H          H       0.67021   0.29788   0.46213
H          H       0.70212   0.37233   0.46213
H          H       0.64264   0.39640   0.47423
H          H       0.60360   0.24624   0.47423
H          H       0.75376   0.35736   0.47423
H          H       0.62808   0.41030   0.00961
H          H       0.58970   0.21778   0.00961
H          H       0.78222   0.37192   0.00961
H          H       0.58831   0.36802   0.21448
H          H       0.63198   0.22029   0.21448
H          H       0.77971   0.41169   0.21448
H          H       0.60279   0.35430   0.18394
H          H       0.64570   0.24849   0.18394
H          H       0.75151   0.39721   0.18394
H          H       0.49305   0.48112   0.02425
H          H       0.51888   0.01193   0.02425
H          H       0.98807   0.50695   0.02425
H          H       0.60024   0.42575   0.16911
H          H       0.57425   0.17449   0.16911
H          H       0.82551   0.39976   0.16911
H          H       0.58913   0.44276   0.22285
H          H       0.55724   0.14637   0.22285
H          H       0.85363   0.41087   0.22285
H          H       0.54306   0.40233   0.26528
H          H       0.59767   0.14073   0.26528
H          H       0.85927   0.45694   0.26528
H          H       0.55406   0.38517   0.21150
H          H       0.61483   0.16889   0.21150
H          H       0.83111   0.44594   0.21150
H          H       0.57629   0.38110   0.15635
H          H       0.61890   0.19519   0.15635
H          H       0.80481   0.42371   0.15635
H          H       0.56884   0.47351   0.29496
H          H       0.52649   0.09533   0.29496
H          H       0.90467   0.43116   0.29496
H          H       0.55781   0.49065   0.35469
H          H       0.50935   0.06716   0.35469
H          H       0.93284   0.44219   0.35469
H          H       0.51278   0.45017   0.46406
H          H       0.54983   0.06261   0.46406
H          H       0.93739   0.48722   0.46406
H          H       0.52380   0.43303   0.40390
H          H       0.56697   0.09077   0.40390
H          H       0.90923   0.47620   0.40390
H          H       0.45289   0.97031   0.19993
H          H       0.02969   0.48258   0.19993
H          H       0.51742   0.54711   0.19993
H          H       0.43973   0.96368   0.00376
H          H       0.03632   0.47605   0.00376
H          H       0.52395   0.56027   0.00376
H          H       0.43882   0.97661   0.17270
H          H       0.02339   0.46221   0.17270
H          H       0.53779   0.56118   0.17270
H          H       0.55711   0.51469   0.00376
H          H       0.48531   0.04242   0.00376
H          H       0.95758   0.44289   0.00376
H          H       0.54417   0.51032   0.19993
H          H       0.48968   0.03385   0.19993
H          H       0.96615   0.45583   0.19993
H          H       0.56079   0.52955   0.17270
H          H       0.47045   0.03124   0.17270
H          H       0.96876   0.43921   0.17270
N          N       0.34912   0.67562   0.54002
N          N       0.32438   0.67350   0.54002
N          N       0.32650   0.65088   0.54002
C          C       0.31744   0.65766   0.53987
C          C       0.34234   0.65978   0.53987
C          C       0.34022   0.68256   0.53987
C          C       0.35213   0.65232   0.54416
C          C       0.34768   0.69981   0.54416
C          C       0.30019   0.64787   0.54416
C          C       0.34559   0.63650   0.59325
C          C       0.36350   0.70909   0.59325
C          C       0.29091   0.65441   0.59325
C          C       0.35492   0.62957   0.60297
C          C       0.37043   0.72535   0.60297
C          C       0.27465   0.64508   0.60297
C          C       0.37098   0.63825   0.56153
C          C       0.36175   0.73273   0.56153
C          C       0.26727   0.62902   0.56153
C          C       0.37745   0.65403   0.50967
C          C       0.34597   0.72342   0.50967
C          C       0.27658   0.62255   0.50967
C          C       0.36816   0.66100   0.50210
C          C       0.33900   0.70716   0.50210
C          C       0.29284   0.63184   0.50210
C          C       0.38098   0.63095   0.57558
C          C       0.36905   0.75003   0.57558
C          C       0.24997   0.61902   0.57558
C          C       0.37505   0.61516   0.52756
C          C       0.38484   0.75989   0.52756
C          C       0.24011   0.62495   0.52756
C          C       0.38433   0.60823   0.54597
C          C       0.39177   0.77610   0.54597
C          C       0.22390   0.61567   0.54597
C          C       0.39975   0.61690   0.60987
C          C       0.38310   0.78285   0.60987
C          C       0.21715   0.60025   0.60987
C          C       0.40576   0.63272   0.65773
C          C       0.36728   0.77304   0.65773
C          C       0.22696   0.59424   0.65773
C          C       0.39646   0.63964   0.64043
C          C       0.36036   0.75682   0.64043
C          C       0.24318   0.60354   0.64043
C          C       0.00939   0.50629   0.52280
C          C       0.49371   0.50310   0.52280
C          C       0.49690   0.99061   0.52280
C          C       0.00690   0.48047   0.50918
C          C       0.51953   0.52643   0.50918
C          C       0.47357   0.99310   0.50918
C          C       0.01636   0.49701   0.50910
C          C       0.50299   0.51935   0.50910
C          C       0.48065   0.98364   0.50910
C          C       0.16734   0.57783   0.68910
C          C       0.42217   0.58951   0.68910
C          C       0.41049   0.83266   0.68910
C          C       0.15122   0.57053   0.71973
C          C       0.42947   0.58069   0.71973
C          C       0.41931   0.84878   0.71973
C          C       0.14252   0.55434   0.74762
C          C       0.44566   0.58818   0.74762
C          C       0.41182   0.85748   0.74762
C          C       0.14999   0.54546   0.74389
C          C       0.45454   0.60453   0.74389
C          C       0.39547   0.85001   0.74389
C          C       0.16611   0.55275   0.71326
C          C       0.44725   0.61336   0.71326
C          C       0.38664   0.83389   0.71326
C          C       0.17494   0.56899   0.68596
C          C       0.43101   0.60595   0.68596
C          C       0.39405   0.82506   0.68596
C          C       0.19199   0.57645   0.65731
C          C       0.42355   0.61554   0.65731
C          C       0.38446   0.80801   0.65731
N          N       0.20045   0.59146   0.63251
N          N       0.40854   0.60899   0.63251
N          N       0.39101   0.79955   0.63251
C          C       0.12598   0.54687   0.78152
C          C       0.45313   0.57911   0.78152
C          C       0.42089   0.87402   0.78152
C          C       0.11212   0.54062   0.81049
C          C       0.45938   0.57150   0.81049
C          C       0.42850   0.88788   0.81049
C          C       0.09558   0.53316   0.84545
C          C       0.46684   0.56242   0.84545
C          C       0.43758   0.90442   0.84545
C          C       0.08876   0.54219   0.89294
C          C       0.45781   0.54657   0.89294
C          C       0.45343   0.91124   0.89294
C          C       0.07269   0.53494   0.92702
C          C       0.46506   0.53775   0.92702
C          C       0.46225   0.92731   0.92702
C          C       0.06338   0.51866   0.91372
C          C       0.48134   0.54472   0.91372
C          C       0.45528   0.93662   0.91372
C          C       0.07019   0.50963   0.86599
C          C       0.49037   0.56056   0.86599
C          C       0.43944   0.92981   0.86599
C          C       0.08627   0.51688   0.83203
C          C       0.48312   0.56939   0.83203
C          C       0.43061   0.91373   0.83203
C          C       0.04686   0.51118   0.94876
C          C       0.48882   0.53568   0.94876
C          C       0.46432   0.95314   0.94876
C          C       0.03298   0.50477   0.97721
C          C       0.49523   0.52821   0.97721
C          C       0.47179   0.96702   0.97721
N          N       0.67469   0.32553   0.54050
N          N       0.67447   0.34916   0.54050
N          N       0.65084   0.32531   0.54050
C          C       0.65859   0.34119   0.54036
C          C       0.65881   0.31740   0.54036
C          C       0.68260   0.34141   0.54036
C          C       0.64981   0.34972   0.54463
C          C       0.65028   0.30009   0.54463
C          C       0.69991   0.35019   0.54463
C          C       0.65734   0.36561   0.59373
C          C       0.63439   0.29173   0.59373
C          C       0.70827   0.34266   0.59373
C          C       0.64895   0.37354   0.60343
C          C       0.62646   0.27541   0.60343
C          C       0.72459   0.35105   0.60343
C          C       0.63288   0.36582   0.56198
C          C       0.63418   0.26706   0.56198
C          C       0.73294   0.36712   0.56198
C          C       0.62542   0.34997   0.51012
C          C       0.65003   0.27545   0.51012
C          C       0.72455   0.37458   0.51012
C          C       0.63377   0.34199   0.50256
C          C       0.65801   0.29178   0.50256
C          C       0.70822   0.36623   0.50256
C          C       0.62389   0.37419   0.57601
C          C       0.62581   0.24970   0.57601
C          C       0.75030   0.37611   0.57601
C          C       0.63082   0.39010   0.52799
C          C       0.60990   0.24072   0.52799
C          C       0.75928   0.36918   0.52799
C          C       0.62249   0.39803   0.54638
C          C       0.60197   0.22446   0.54638
C          C       0.77554   0.37751   0.54638
C          C       0.60001   0.37434   0.65812
C          C       0.62566   0.22567   0.65812
C          C       0.77433   0.39999   0.65812
C          C       0.60836   0.36641   0.64084
C          C       0.63359   0.24195   0.64084
C          C       0.75805   0.39164   0.64084
C          C       0.50053   0.49372   0.52280
C          C       0.50628   0.00681   0.52280
C          C       0.99319   0.49947   0.52280
C          C       0.51676   0.50042   0.50909
C          C       0.49958   0.01634   0.50909
C          C       0.98366   0.48324   0.50909
C          C       0.52643   0.51694   0.50918
C          C       0.48306   0.00949   0.50918
C          C       0.99051   0.47357   0.50918
C          C       0.58774   0.42047   0.68947
C          C       0.57953   0.16727   0.68947
C          C       0.83273   0.41226   0.68947
C          C       0.58144   0.43020   0.72008
C          C       0.56980   0.15124   0.72008
C          C       0.84876   0.41856   0.72008
C          C       0.56534   0.42371   0.74774
C          C       0.57629   0.14163   0.74774
C          C       0.85837   0.43466   0.74774
C          C       0.55554   0.40747   0.74380
C          C       0.59253   0.14807   0.74380
C          C       0.85193   0.44446   0.74380
C          C       0.56181   0.39772   0.71318
C          C       0.60228   0.16409   0.71318
C          C       0.83591   0.43819   0.71318
C          C       0.57796   0.40412   0.68612
C          C       0.59588   0.17384   0.68612
C          C       0.82616   0.42204   0.68612
C          C       0.58434   0.39358   0.65750
C          C       0.60642   0.19076   0.65750
C          C       0.80924   0.41566   0.65750
N          N       0.59925   0.39918   0.63284
N          N       0.60082   0.20007   0.63284
N          N       0.79993   0.40075   0.63284
C          C       0.55890   0.43372   0.78161
C          C       0.56628   0.12518   0.78161
C          C       0.87482   0.44110   0.78161
C          C       0.55351   0.44210   0.81055
C          C       0.55790   0.11141   0.81055
C          C       0.88859   0.44649   0.81055
C          C       0.54708   0.45210   0.84548
C          C       0.54790   0.09498   0.84548
C          C       0.90502   0.45292   0.84548
C          C       0.55661   0.46837   0.83206
C          C       0.53163   0.08824   0.83206
C          C       0.91176   0.44339   0.83206
C          C       0.55035   0.47809   0.86600
C          C       0.52191   0.07226   0.86600
C          C       0.92774   0.44965   0.86600
C          C       0.53455   0.47158   0.91372
C          C       0.52842   0.06297   0.91372
C          C       0.93703   0.46545   0.91372
C          C       0.52501   0.45532   0.92701
C          C       0.54468   0.06969   0.92701
C          C       0.93031   0.47499   0.92701
C          C       0.53127   0.44559   0.89294
C          C       0.55441   0.08568   0.89294
C          C       0.91432   0.46873   0.89294
C          C       0.52815   0.48159   0.94875
C          C       0.51841   0.04656   0.94875
C          C       0.95344   0.47185   0.94875
C          C       0.52293   0.49013   0.97721
C          C       0.50987   0.03280   0.97721
C          C       0.96720   0.47707   0.97721
C          C       0.60703   0.39027   0.61024
C          C       0.60973   0.21676   0.61024
C          C       0.78324   0.39297   0.61024
O          O       0.45735   0.98701   0.98736
O          O       0.01299   0.47034   0.98736
O          O       0.52966   0.54265   0.98736
C          C       0.44685   0.97376   0.59660
C          C       0.02624   0.47309   0.59660
C          C       0.52691   0.55315   0.59660
O          O       0.54281   0.52457   0.98736
O          O       0.47543   0.01824   0.98736
O          O       0.98176   0.45719   0.98736
C          C       0.55146   0.51939   0.59660
C          C       0.48061   0.03207   0.59660
C          C       0.96793   0.44854   0.59660
H          H       0.33331   0.62953   0.62842
H          H       0.37047   0.70378   0.62842
H          H       0.29622   0.66669   0.62842
H          H       0.34960   0.61750   0.64743
H          H       0.38250   0.73210   0.64743
H          H       0.26790   0.65040   0.64743
H          H       0.38969   0.66098   0.97296
H          H       0.33902   0.72871   0.97296
H          H       0.27129   0.61031   0.97296
H          H       0.37351   0.67318   0.96166
H          H       0.32682   0.70033   0.96166
H          H       0.29967   0.62649   0.96166
H          H       0.36330   0.60818   0.97379
H          H       0.39182   0.75512   0.97379
H          H       0.24488   0.63670   0.97379
H          H       0.37951   0.59604   0.50921
H          H       0.40396   0.78347   0.50921
H          H       0.21653   0.62049   0.50921
H          H       0.41739   0.63970   0.71410
H          H       0.36030   0.77769   0.71410
H          H       0.22231   0.58261   0.71410
H          H       0.40128   0.65169   0.68351
H          H       0.34831   0.74959   0.68351
H          H       0.25041   0.59872   0.68351
H          H       0.01653   0.51893   0.52426
H          H       0.48107   0.49760   0.52426
H          H       0.50240   0.98347   0.52426
H          H       0.17384   0.59038   0.66856
H          H       0.40962   0.58346   0.66856
H          H       0.41654   0.82616   0.66856
H          H       0.14554   0.57750   0.72234
H          H       0.42250   0.56804   0.72234
H          H       0.43196   0.85446   0.72234
H          H       0.14337   0.53293   0.76555
H          H       0.46707   0.61044   0.76555
H          H       0.38956   0.85663   0.76555
H          H       0.17171   0.54570   0.71173
H          H       0.45430   0.62601   0.71173
H          H       0.37399   0.82829   0.71173
H          H       0.19722   0.56909   0.65631
H          H       0.43091   0.62813   0.65631
H          H       0.37187   0.80278   0.65631
H          H       0.09587   0.55479   0.90390
H          H       0.44521   0.54108   0.90390
H          H       0.45892   0.90413   0.90390
H          H       0.06753   0.54202   0.96409
H          H       0.45798   0.52551   0.96409
H          H       0.47449   0.93247   0.96409
H          H       0.06309   0.49703   0.85467
H          H       0.50297   0.56606   0.85467
H          H       0.43394   0.93691   0.85467
H          H       0.09143   0.50980   0.79491
H          H       0.49020   0.58163   0.79491
H          H       0.41837   0.90857   0.79491
H          H       0.66965   0.37186   0.62891
H          H       0.62814   0.29779   0.62891
H          H       0.70221   0.33035   0.62891
H          H       0.65501   0.38564   0.64788
H          H       0.61436   0.26937   0.64788
H          H       0.73063   0.34499   0.64788
H          H       0.61315   0.34373   0.97341
H          H       0.65627   0.26942   0.97341
H          H       0.73058   0.38685   0.97341
H          H       0.62767   0.32979   0.96213
H          H       0.67021   0.29788   0.96213
H          H       0.70212   0.37233   0.96213
H          H       0.64264   0.39640   0.97423
H          H       0.60360   0.24624   0.97423
H          H       0.75376   0.35736   0.97423
H          H       0.62808   0.41030   0.50960
H          H       0.58970   0.21778   0.50960
H          H       0.78222   0.37192   0.50960
H          H       0.58831   0.36802   0.71448
H          H       0.63198   0.22029   0.71448
H          H       0.77971   0.41169   0.71448
H          H       0.60279   0.35430   0.68394
H          H       0.64570   0.24849   0.68394
H          H       0.75151   0.39721   0.68394
H          H       0.49305   0.48112   0.52425
H          H       0.51888   0.01193   0.52425
H          H       0.98807   0.50695   0.52425
H          H       0.60024   0.42575   0.66912
H          H       0.57425   0.17449   0.66912
H          H       0.82551   0.39976   0.66912
H          H       0.58913   0.44276   0.72285
H          H       0.55724   0.14637   0.72285
H          H       0.85363   0.41087   0.72285
H          H       0.54306   0.40233   0.76528
H          H       0.59767   0.14073   0.76528
H          H       0.85927   0.45694   0.76528
H          H       0.55406   0.38517   0.71150
H          H       0.61483   0.16889   0.71150
H          H       0.83111   0.44594   0.71150
H          H       0.57629   0.38110   0.65635
H          H       0.61890   0.19519   0.65635
H          H       0.80481   0.42371   0.65635
H          H       0.56884   0.47351   0.79497
H          H       0.52649   0.09533   0.79497
H          H       0.90467   0.43116   0.79497
H          H       0.55781   0.49065   0.85469
H          H       0.50935   0.06716   0.85469
H          H       0.93284   0.44219   0.85469
H          H       0.51278   0.45017   0.96406
H          H       0.54983   0.06261   0.96406
H          H       0.93739   0.48722   0.96406
H          H       0.52380   0.43303   0.90390
H          H       0.56697   0.09077   0.90390
H          H       0.90923   0.47620   0.90390
H          H       0.45289   0.97031   0.69993
H          H       0.02969   0.48258   0.69993
H          H       0.51742   0.54711   0.69993
H          H       0.43973   0.96368   0.50376
H          H       0.03632   0.47605   0.50376
H          H       0.52395   0.56027   0.50376
H          H       0.43882   0.97661   0.67270
H          H       0.02339   0.46221   0.67270
H          H       0.53779   0.56118   0.67270
H          H       0.55711   0.51469   0.50376
H          H       0.48531   0.04242   0.50376
H          H       0.95758   0.44289   0.50376
H          H       0.54417   0.51032   0.69993
H          H       0.48968   0.03385   0.69993
H          H       0.96615   0.45583   0.69993
H          H       0.56079   0.52955   0.67270
H          H       0.47045   0.03124   0.67270
H          H       0.96876   0.43921   0.67270
