data_crystal

_cell_length_a    46.55090
_cell_length_b    55.93590
_cell_length_c    8.05160
_cell_angle_alpha 90.00000
_cell_angle_beta  90.00000
_cell_angle_gamma 90.00000

_space_group_name_Hall 'P 1'
_space_group_name_H-M_alt 'P 1'

loop_
_symmetry_equiv_pos_as_xyz
 'x,y,z'

loop_
_atom_site_label
_atom_site_type_symbol
_atom_site_fract_x
_atom_site_fract_y
_atom_site_fract_z
C          C       0.85386   0.65779   0.32185
C          C       0.83026   0.67543   0.32893
C          C       0.83471   0.69859   0.26710
C          C       0.81233   0.71525   0.26555
C          C       0.78507   0.70903   0.32578
C          C       0.78076   0.68605   0.39052
C          C       0.80315   0.66942   0.39265
C          C       0.76135   0.72669   0.32522
C          C       0.76460   0.74744   0.40680
C          C       0.74213   0.76611   0.40959
C          C       0.71690   0.76366   0.33059
C          C       0.71183   0.74204   0.22209
C          C       0.73498   0.72271   0.21975
N          N       0.68564   0.73494   0.21079
S          S       0.70483   0.71666   0.35506
N          N       0.72640   0.70094   0.20760
C          C       0.69536   0.78315   0.34080
C          C       0.70217   0.80637   0.28739
C          C       0.68222   0.82496   0.30391
C          C       0.65507   0.82058   0.37354
C          C       0.64823   0.79730   0.42482
C          C       0.66822   0.77882   0.40948
C          C       0.63303   0.83951   0.38623
C          C       0.93145   0.55830   0.35308
C          C       0.92535   0.53462   0.30122
C          C       0.94755   0.51636   0.29350
C          C       0.97622   0.52709   0.28401
C          C       0.98205   0.54948   0.34819
C          C       0.95983   0.56439   0.39255
C          C       0.90972   0.57780   0.35112
C          C       0.91784   0.60069   0.29604
C          C       0.89892   0.61992   0.30393
C          C       0.87083   0.61668   0.36353
C          C       0.86227   0.59369   0.41281
C          C       0.88146   0.57436   0.40664
N          N       0.85014   0.63584   0.37096
N          N       0.99968   0.51348   0.22290
N          N       0.99975   0.48845   0.22502
N          N       0.84945   0.36715   0.37771
C          C       0.88124   0.42838   0.40920
C          C       0.86179   0.40928   0.41500
C          C       0.87025   0.38612   0.36958
C          C       0.89854   0.38245   0.31418
C          C       0.91764   0.40148   0.30534
C          C       0.60030   0.08440   0.44554
C          C       0.62023   0.10301   0.45640
C          C       0.61364   0.12564   0.39335
C          C       0.58645   0.12956   0.32207
C          C       0.56645   0.11103   0.31266
C          C       0.41424   0.11281   0.47264
C          C       0.39432   0.13149   0.45681
C          C       0.36747   0.12973   0.37532
C          C       0.36762   0.10968   0.26425
C          C       0.38479   0.08948   0.29190
N          N       0.63540   0.14380   0.39160
N          N       0.48859   0.99656   0.25381
N          N       0.63963   0.86206   0.37589
C          C       0.39005   0.92042   0.27460
C          C       0.37135   0.90104   0.25703
C          C       0.37869   0.87863   0.32150
C          C       0.40517   0.87584   0.40297
C          C       0.42398   0.89511   0.41884
C          C       0.57286   0.89687   0.27677
C          C       0.59199   0.87779   0.29290
C          C       0.61876   0.88102   0.37026
C          C       0.62608   0.90376   0.42977
C          C       0.60703   0.92297   0.41164
C          C       0.41649   0.91761   0.35613
C          C       0.58025   0.91963   0.33511
C          C       0.53150   0.93860   0.35195
C          C       0.56066   0.94001   0.30649
C          C       0.57086   0.96069   0.22763
C          C       0.55221   0.97949   0.19216
C          C       0.51285   0.95781   0.31992
C          C       0.52348   0.97809   0.23903
C          C       0.46485   0.93737   0.34631
C          C       0.48246   0.95744   0.37230
C          C       0.47051   0.97805   0.44227
C          C       0.44152   0.97895   0.48403
C          C       0.42391   0.95935   0.45343
C          C       0.43537   0.93837   0.38498
C          C       0.15054   0.65176   0.37507
C          C       0.17334   0.66998   0.36769
C          C       0.16770   0.69294   0.42962
C          C       0.18929   0.71020   0.43372
C          C       0.21688   0.70476   0.37572
C          C       0.22239   0.68205   0.30969
C          C       0.20081   0.66473   0.30604
C          C       0.23969   0.72305   0.37891
C          C       0.23555   0.74376   0.29846
C          C       0.25726   0.76298   0.29679
C          C       0.28241   0.76103   0.37645
C          C       0.28828   0.73960   0.48540
C          C       0.26586   0.71971   0.48618
N          N       0.31461   0.73322   0.49834
S          S       0.29648   0.71448   0.35265
N          N       0.27529   0.69816   0.49877
C          C       0.30356   0.78066   0.36414
C          C       0.29628   0.80393   0.41394
C          C       0.31601   0.82260   0.39494
H          H       0.85553   0.70378   0.21945
H          H       0.81620   0.73297   0.21631
H          H       0.76013   0.68107   0.44135
H          H       0.79925   0.65189   0.44439
H          H       0.78383   0.75051   0.47887
H          H       0.74605   0.78183   0.48434
H          H       0.72288   0.81001   0.23206
H          H       0.68784   0.84263   0.25977
H          H       0.62743   0.79347   0.47831
H          H       0.66258   0.76118   0.45365
H          H       0.61090   0.83417   0.40487
H          H       0.90373   0.52989   0.26455
H          H       0.94601   0.50116   0.40951
H          H       0.96515   0.58177   0.44248
H          H       0.93904   0.60378   0.24539
H          H       0.90669   0.63702   0.26161
H          H       0.84050   0.59075   0.45504
H          H       0.87436   0.55688   0.44679
H          H       0.87424   0.44600   0.44675
H          H       0.83988   0.41251   0.45393
H          H       0.90633   0.36515   0.27636
H          H       0.93892   0.39806   0.25668
H          H       0.96514   0.42038   0.44795
H          H       0.94373   0.50086   0.18080
H          H       0.90385   0.47213   0.26692
H          H       0.60820   0.17248   0.42828
H          H       0.66243   0.24374   0.46670
H          H       0.62612   0.21251   0.49212
H          H       0.68459   0.16156   0.27552
H          H       0.72094   0.19321   0.24695
H          H       0.74537   0.22134   0.49609
H          H       0.78346   0.25242   0.49038
H          H       0.79880   0.35121   0.45453
H          H       0.75992   0.32183   0.45726
H          H       0.81547   0.27012   0.22558
H          H       0.85466   0.29942   0.22457
H          H       0.87296   0.33947   0.27249
H          H       0.39308   0.04719   0.00424
H          H       0.42411   0.01222   0.05019
H          H       0.46642   0.08770   0.33860
H          H       0.55324   0.01225   0.17651
H          H       0.58617   0.04549   0.23507
H          H       0.51612   0.08582   0.44500
H          H       0.60603   0.06692   0.49244
H          H       0.64096   0.09976   0.01286
H          H       0.58114   0.14661   0.26713
H          H       0.54607   0.11418   0.25187
H          H       0.43403   0.11570   0.03973
H          H       0.40138   0.15210   0.46841
H          H       0.34990   0.10748   0.17900
H          H       0.38038   0.07318   0.22480
H          H       0.38383   0.93768   0.22598
C          C       0.90964   0.42454   0.35697
C          C       0.95986   0.43775   0.39748
C          C       0.98209   0.45259   0.35257
C          C       0.97631   0.47495   0.28749
C          C       0.94761   0.48568   0.29535
C          C       0.92544   0.46746   0.30450
C          C       0.93148   0.44387   0.35787
C          C       0.62990   0.16650   0.40346
C          C       0.66748   0.22592   0.42378
C          C       0.64677   0.20807   0.43907
C          C       0.65271   0.18463   0.38855
C          C       0.67966   0.17941   0.31896
C          C       0.70040   0.19740   0.30255
C          C       0.69437   0.22081   0.35504
N          N       0.72633   0.30247   0.22059
S          S       0.70462   0.28685   0.36777
N          N       0.68537   0.26874   0.22297
C          C       0.73474   0.28063   0.23263
C          C       0.71142   0.26148   0.23459
C          C       0.71639   0.23983   0.34295
C          C       0.74158   0.23709   0.42139
C          C       0.76421   0.25563   0.41881
C          C       0.76096   0.27645   0.33825
C          C       0.80265   0.33364   0.40318
C          C       0.78042   0.31692   0.40435
C          C       0.78468   0.29400   0.33868
C          C       0.81172   0.28780   0.27569
C          C       0.83398   0.30452   0.27455
C          C       0.82957   0.32765   0.33686
C          C       0.85304   0.34524   0.32762
C          C       0.42763   0.07012   0.42125
C          C       0.41579   0.04857   0.47814
C          C       0.43323   0.02870   0.00402
C          C       0.46237   0.02988   0.46712
C          C       0.47477   0.05092   0.40631
C          C       0.45729   0.07134   0.38678
C          C       0.51634   0.02985   0.28010
C          C       0.50541   0.05048   0.35604
C          C       0.54522   0.02819   0.23631
C          C       0.56378   0.04706   0.26990
C          C       0.55345   0.06804   0.34415
C          C       0.52408   0.06979   0.38562
C          C       0.57332   0.08821   0.37198
C          C       0.40855   0.09098   0.39671
C          C       0.34316   0.81819   0.32547
C          C       0.35038   0.79488   0.27773
C          C       0.33065   0.77633   0.29563
C          C       0.36498   0.83712   0.31083
C          C       0.03209   0.51901   0.43273
C          C       0.02559   0.54160   0.37446
C          C       0.06082   0.50858   0.41748
C          C       0.08274   0.52707   0.40658
C          C       0.07597   0.55098   0.36342
C          C       0.04734   0.55695   0.33006
C          C       0.09747   0.57067   0.36629
C          C       0.12571   0.56753   0.30987
C          C       0.14447   0.58713   0.30060
C          C       0.13534   0.61010   0.34644
C          C       0.10737   0.61301   0.40840
C          C       0.08903   0.59349   0.42124
N          N       0.15541   0.62965   0.33393
N          N       0.15970   0.35870   0.33452
C          C       0.09210   0.39338   0.41159
C          C       0.11095   0.37432   0.39794
C          C       0.13926   0.37799   0.34453
C          C       0.14788   0.40123   0.30134
C          C       0.12847   0.42044   0.30981
C          C       0.10004   0.41659   0.36236
C          C       0.04922   0.42915   0.33696
C          C       0.07787   0.43586   0.36347
C          C       0.08397   0.46000   0.40398
C          C       0.06139   0.47792   0.41862
C          C       0.02721   0.44394   0.38486
C          C       0.03311   0.46680   0.43916
C          C       0.37634   0.15526   0.34856
C          C       0.33457   0.21121   0.26731
C          C       0.35429   0.19249   0.25745
C          C       0.35127   0.17193   0.36074
C          C       0.32554   0.17009   0.45717
C          C       0.30457   0.18790   0.44999
C          C       0.30942   0.20887   0.36013
N          N       0.27975   0.29111   0.49552
S          S       0.30050   0.27577   0.34247
N          N       0.32048   0.25716   0.48059
C          C       0.27110   0.26936   0.48191
C          C       0.29421   0.25012   0.47458
C          C       0.28846   0.22866   0.36623
C          C       0.26302   0.22632   0.28970
C          C       0.24078   0.24514   0.29524
C          C       0.24448   0.26565   0.37877
C          C       0.20475   0.32345   0.30533
C          C       0.22621   0.30603   0.30427
C          C       0.22148   0.28376   0.37853
C          C       0.19479   0.27882   0.45071
C          C       0.17339   0.29631   0.45319
C          C       0.17840   0.31887   0.38273
C          C       0.15606   0.33740   0.39582
N          N       0.35357   0.14907   0.27643
N          N       0.35804   0.85959   0.31678
H          H       0.87395   0.66357   0.26872
H          H       0.35102   0.90353   0.19430
H          H       0.41075   0.85908   0.46125
H          H       0.44379   0.89276   0.48696
H          H       0.55276   0.89412   0.21228
H          H       0.58630   0.86079   0.23849
H          H       0.64661   0.90666   0.48935
H          H       0.61325   0.94046   0.45637
H          H       0.52364   0.92292   0.41634
H          H       0.59313   0.96209   0.19069
H          H       0.55995   0.99518   0.12804
H          H       0.47370   0.92140   0.29022
H          H       0.43263   0.99498   0.03821
H          H       0.40135   0.96046   0.48481
H          H       0.13004   0.65733   0.42336
H          H       0.14657   0.69748   0.47581
H          H       0.18459   0.72773   0.48381
H          H       0.24336   0.67779   0.26021
H          H       0.20562   0.64734   0.25460
H          H       0.21632   0.74633   0.22555
H          H       0.25293   0.77852   0.22084
H          H       0.27555   0.80751   0.46924
H          H       0.31017   0.84035   0.43654
H          H       0.37120   0.79106   0.22463
H          H       0.33658   0.75860   0.25477
H          H       0.38721   0.83188   0.29517
H          H       0.06591   0.49338   0.03043
H          H       0.10460   0.52238   0.43829
H          H       0.04144   0.57453   0.28573
H          H       0.13313   0.55012   0.27050
H          H       0.16621   0.58444   0.25729
H          H       0.09914   0.63008   0.44834
H          H       0.06797   0.59640   0.47429
H          H       0.07098   0.38966   0.46105
H          H       0.10276   0.35686   0.42897
H          H       0.16973   0.40445   0.26135
H          H       0.13558   0.43809   0.27372
H          H       0.04354   0.41149   0.29348
H          H       0.10591   0.46551   0.42629
H          H       0.06163   0.49318   0.30250
H          H       0.38162   0.15489   0.49929
H          H       0.33877   0.22747   0.20012
H          H       0.37354   0.19508   0.18426
H          H       0.32092   0.15405   0.02713
H          H       0.28481   0.18557   0.01806
H          H       0.25860   0.21053   0.21693
H          H       0.22143   0.24244   0.22352
H          H       0.20887   0.34043   0.24596
H          H       0.24647   0.30991   0.24493
H          H       0.19065   0.26161   0.00724
H          H       0.15301   0.29228   0.01121
H          H       0.13702   0.33282   0.46456
H          H       0.13718   0.34202   0.48156
C          C       0.85386   0.65779   0.82185
C          C       0.83026   0.67543   0.82893
C          C       0.83471   0.69859   0.76710
C          C       0.81233   0.71525   0.76555
C          C       0.78507   0.70903   0.82577
C          C       0.78076   0.68605   0.89052
C          C       0.80315   0.66942   0.89265
C          C       0.76135   0.72669   0.82522
C          C       0.76460   0.74744   0.90680
C          C       0.74213   0.76611   0.90959
C          C       0.71690   0.76366   0.83059
C          C       0.71183   0.74204   0.72209
C          C       0.73498   0.72271   0.71975
N          N       0.68564   0.73494   0.71079
S          S       0.70483   0.71666   0.85506
N          N       0.72640   0.70094   0.70760
C          C       0.69536   0.78315   0.84080
C          C       0.70217   0.80637   0.78739
C          C       0.68222   0.82496   0.80391
C          C       0.65507   0.82058   0.87354
C          C       0.64823   0.79730   0.92482
C          C       0.66822   0.77882   0.90948
C          C       0.63303   0.83951   0.88623
C          C       0.93145   0.55830   0.85307
C          C       0.92535   0.53462   0.80122
C          C       0.94755   0.51636   0.79350
C          C       0.97622   0.52709   0.78401
C          C       0.98205   0.54948   0.84819
C          C       0.95983   0.56439   0.89255
C          C       0.90972   0.57780   0.85112
C          C       0.91784   0.60069   0.79604
C          C       0.89892   0.61992   0.80393
C          C       0.87083   0.61668   0.86353
C          C       0.86227   0.59369   0.91281
C          C       0.88146   0.57436   0.90664
N          N       0.85014   0.63584   0.87096
N          N       0.99968   0.51348   0.72290
N          N       0.99975   0.48845   0.72502
N          N       0.84945   0.36715   0.87771
C          C       0.88124   0.42838   0.90921
C          C       0.86179   0.40928   0.91500
C          C       0.87025   0.38612   0.86959
C          C       0.89854   0.38245   0.81418
C          C       0.91764   0.40148   0.80534
C          C       0.60030   0.08440   0.94554
C          C       0.62023   0.10301   0.95640
C          C       0.61364   0.12564   0.89335
C          C       0.58645   0.12956   0.82207
C          C       0.56645   0.11103   0.81266
C          C       0.41424   0.11281   0.97264
C          C       0.39432   0.13149   0.95681
C          C       0.36747   0.12973   0.87532
C          C       0.36762   0.10968   0.76425
C          C       0.38479   0.08948   0.79190
N          N       0.63540   0.14380   0.89160
N          N       0.48859   0.99656   0.75380
N          N       0.63963   0.86206   0.87589
C          C       0.39005   0.92042   0.77460
C          C       0.37135   0.90104   0.75703
C          C       0.37869   0.87863   0.82150
C          C       0.40517   0.87584   0.90297
C          C       0.42398   0.89511   0.91883
C          C       0.57286   0.89687   0.77677
C          C       0.59199   0.87779   0.79290
C          C       0.61876   0.88102   0.87026
C          C       0.62608   0.90376   0.92977
C          C       0.60703   0.92297   0.91165
C          C       0.41649   0.91761   0.85613
C          C       0.58025   0.91963   0.83511
C          C       0.53150   0.93860   0.85195
C          C       0.56066   0.94001   0.80649
C          C       0.57086   0.96069   0.72763
C          C       0.55221   0.97949   0.69216
C          C       0.51285   0.95781   0.81992
C          C       0.52348   0.97809   0.73903
C          C       0.46485   0.93737   0.84631
C          C       0.48246   0.95744   0.87230
C          C       0.47051   0.97805   0.94228
C          C       0.44152   0.97895   0.98403
C          C       0.42391   0.95935   0.95344
C          C       0.43537   0.93837   0.88498
C          C       0.15054   0.65176   0.87508
C          C       0.17334   0.66998   0.86769
C          C       0.16770   0.69294   0.92962
C          C       0.18929   0.71020   0.93372
C          C       0.21688   0.70476   0.87572
C          C       0.22239   0.68205   0.80969
C          C       0.20081   0.66473   0.80604
C          C       0.23969   0.72305   0.87891
C          C       0.23555   0.74376   0.79846
C          C       0.25726   0.76298   0.79679
C          C       0.28241   0.76103   0.87645
C          C       0.28828   0.73960   0.98540
C          C       0.26586   0.71971   0.98618
N          N       0.31461   0.73322   0.99834
S          S       0.29648   0.71448   0.85265
N          N       0.27529   0.69816   0.99877
C          C       0.30356   0.78066   0.86414
C          C       0.29628   0.80393   0.91394
C          C       0.31601   0.82260   0.89494
H          H       0.85553   0.70378   0.71945
H          H       0.81620   0.73297   0.71631
H          H       0.76013   0.68107   0.94135
H          H       0.79925   0.65189   0.94439
H          H       0.78383   0.75051   0.97887
H          H       0.74605   0.78183   0.98434
H          H       0.72288   0.81001   0.73206
H          H       0.68784   0.84263   0.75978
H          H       0.62743   0.79347   0.97831
H          H       0.66258   0.76118   0.95364
H          H       0.61090   0.83417   0.90487
H          H       0.90373   0.52989   0.76455
H          H       0.94601   0.50116   0.90951
H          H       0.96515   0.58177   0.94248
H          H       0.93904   0.60378   0.74538
H          H       0.90669   0.63702   0.76161
H          H       0.84050   0.59075   0.95504
H          H       0.87436   0.55688   0.94679
H          H       0.87424   0.44600   0.94675
H          H       0.83988   0.41251   0.95393
H          H       0.90633   0.36515   0.77635
H          H       0.93892   0.39806   0.75668
H          H       0.96514   0.42038   0.94795
H          H       0.94373   0.50086   0.68080
H          H       0.90385   0.47213   0.76692
H          H       0.60820   0.17248   0.92828
H          H       0.66243   0.24374   0.96671
H          H       0.62612   0.21251   0.99212
H          H       0.68459   0.16156   0.77552
H          H       0.72094   0.19321   0.74695
H          H       0.74537   0.22134   0.99609
H          H       0.78346   0.25242   0.99038
H          H       0.79880   0.35121   0.95452
H          H       0.75992   0.32183   0.95725
H          H       0.81547   0.27012   0.72557
H          H       0.85466   0.29942   0.72457
H          H       0.87296   0.33947   0.77250
H          H       0.39308   0.04719   0.50424
H          H       0.42411   0.01222   0.55018
H          H       0.46642   0.08770   0.83860
H          H       0.55324   0.01225   0.67651
H          H       0.58617   0.04549   0.73507
H          H       0.51612   0.08582   0.94500
H          H       0.60603   0.06692   0.99244
H          H       0.64096   0.09976   0.51285
H          H       0.58114   0.14661   0.76713
H          H       0.54607   0.11418   0.75187
H          H       0.43403   0.11570   0.53973
H          H       0.40138   0.15210   0.96841
H          H       0.34990   0.10748   0.67900
H          H       0.38038   0.07318   0.72480
H          H       0.38383   0.93768   0.72598
C          C       0.90964   0.42454   0.85697
C          C       0.95986   0.43775   0.89748
C          C       0.98209   0.45259   0.85257
C          C       0.97631   0.47495   0.78749
C          C       0.94761   0.48568   0.79535
C          C       0.92544   0.46746   0.80450
C          C       0.93148   0.44387   0.85787
C          C       0.62990   0.16650   0.90346
C          C       0.66748   0.22592   0.92378
C          C       0.64677   0.20807   0.93907
C          C       0.65271   0.18463   0.88855
C          C       0.67966   0.17941   0.81897
C          C       0.70040   0.19740   0.80255
C          C       0.69437   0.22081   0.85504
N          N       0.72633   0.30247   0.72059
S          S       0.70462   0.28685   0.86777
N          N       0.68537   0.26874   0.72296
C          C       0.73474   0.28063   0.73263
C          C       0.71142   0.26148   0.73459
C          C       0.71639   0.23983   0.84295
C          C       0.74158   0.23709   0.92139
C          C       0.76421   0.25563   0.91881
C          C       0.76096   0.27645   0.83825
C          C       0.80265   0.33364   0.90318
C          C       0.78042   0.31692   0.90434
C          C       0.78468   0.29400   0.83868
C          C       0.81172   0.28780   0.77569
C          C       0.83398   0.30452   0.77455
C          C       0.82957   0.32765   0.83686
C          C       0.85304   0.34524   0.82762
C          C       0.42763   0.07012   0.92125
C          C       0.41579   0.04857   0.97814
C          C       0.43323   0.02870   0.50402
C          C       0.46237   0.02988   0.96712
C          C       0.47477   0.05092   0.90631
C          C       0.45729   0.07134   0.88679
C          C       0.51634   0.02985   0.78010
C          C       0.50541   0.05048   0.85604
C          C       0.54522   0.02819   0.73631
C          C       0.56378   0.04706   0.76990
C          C       0.55345   0.06804   0.84415
C          C       0.52408   0.06979   0.88562
C          C       0.57332   0.08821   0.87198
C          C       0.40855   0.09098   0.89671
C          C       0.34316   0.81819   0.82547
C          C       0.35038   0.79488   0.77773
C          C       0.33065   0.77633   0.79563
C          C       0.36498   0.83712   0.81083
C          C       0.03209   0.51901   0.93273
C          C       0.02559   0.54160   0.87446
C          C       0.06082   0.50858   0.91748
C          C       0.08274   0.52707   0.90658
C          C       0.07597   0.55098   0.86342
C          C       0.04734   0.55695   0.83006
C          C       0.09747   0.57067   0.86629
C          C       0.12571   0.56753   0.80986
C          C       0.14447   0.58713   0.80060
C          C       0.13534   0.61010   0.84644
C          C       0.10737   0.61301   0.90840
C          C       0.08903   0.59349   0.92124
N          N       0.15541   0.62965   0.83393
N          N       0.15970   0.35870   0.83452
C          C       0.09210   0.39338   0.91159
C          C       0.11095   0.37432   0.89794
C          C       0.13926   0.37799   0.84453
C          C       0.14788   0.40123   0.80134
C          C       0.12847   0.42044   0.80981
C          C       0.10004   0.41659   0.86237
C          C       0.04922   0.42915   0.83696
C          C       0.07787   0.43586   0.86347
C          C       0.08397   0.46000   0.90399
C          C       0.06139   0.47792   0.91862
C          C       0.02721   0.44394   0.88486
C          C       0.03311   0.46680   0.93916
C          C       0.37634   0.15526   0.84855
C          C       0.33457   0.21121   0.76731
C          C       0.35429   0.19249   0.75745
C          C       0.35127   0.17193   0.86074
C          C       0.32554   0.17009   0.95718
C          C       0.30457   0.18790   0.94999
C          C       0.30942   0.20887   0.86013
N          N       0.27975   0.29111   0.99552
S          S       0.30050   0.27577   0.84247
N          N       0.32048   0.25716   0.98059
C          C       0.27110   0.26936   0.98191
C          C       0.29421   0.25012   0.97457
C          C       0.28846   0.22866   0.86623
C          C       0.26302   0.22632   0.78970
C          C       0.24078   0.24514   0.79524
C          C       0.24448   0.26565   0.87877
C          C       0.20475   0.32345   0.80533
C          C       0.22621   0.30603   0.80427
C          C       0.22148   0.28376   0.87852
C          C       0.19479   0.27882   0.95071
C          C       0.17339   0.29631   0.95318
C          C       0.17840   0.31887   0.88274
C          C       0.15606   0.33740   0.89582
N          N       0.35357   0.14907   0.77643
N          N       0.35804   0.85959   0.81678
H          H       0.87395   0.66357   0.76872
H          H       0.35102   0.90353   0.69430
H          H       0.41075   0.85908   0.96125
H          H       0.44379   0.89276   0.98696
H          H       0.55276   0.89412   0.71228
H          H       0.58630   0.86079   0.73849
H          H       0.64661   0.90666   0.98935
H          H       0.61325   0.94046   0.95637
H          H       0.52364   0.92292   0.91634
H          H       0.59313   0.96209   0.69069
H          H       0.55995   0.99518   0.62804
H          H       0.47370   0.92140   0.79021
H          H       0.43263   0.99498   0.53820
H          H       0.40135   0.96046   0.98481
H          H       0.13004   0.65733   0.92336
H          H       0.14657   0.69748   0.97581
H          H       0.18459   0.72773   0.98381
H          H       0.24336   0.67779   0.76021
H          H       0.20562   0.64734   0.75460
H          H       0.21632   0.74633   0.72555
H          H       0.25293   0.77852   0.72084
H          H       0.27555   0.80751   0.96923
H          H       0.31017   0.84035   0.93654
H          H       0.37120   0.79106   0.72463
H          H       0.33658   0.75860   0.75477
H          H       0.38721   0.83188   0.79518
H          H       0.06591   0.49338   0.53043
H          H       0.10460   0.52238   0.93829
H          H       0.04144   0.57453   0.78573
H          H       0.13313   0.55012   0.77050
H          H       0.16621   0.58444   0.75729
H          H       0.09914   0.63008   0.94834
H          H       0.06797   0.59640   0.97429
H          H       0.07098   0.38966   0.96105
H          H       0.10276   0.35686   0.92897
H          H       0.16973   0.40445   0.76135
H          H       0.13558   0.43809   0.77372
H          H       0.04354   0.41149   0.79348
H          H       0.10591   0.46551   0.92629
H          H       0.06163   0.49318   0.80250
H          H       0.38162   0.15489   0.99929
H          H       0.33877   0.22747   0.70012
H          H       0.37354   0.19508   0.68426
H          H       0.32092   0.15405   0.52714
H          H       0.28481   0.18557   0.51806
H          H       0.25860   0.21053   0.71693
H          H       0.22143   0.24244   0.72352
H          H       0.20887   0.34043   0.74596
H          H       0.24647   0.30991   0.74492
H          H       0.19065   0.26161   0.50724
H          H       0.15301   0.29228   0.51122
H          H       0.13702   0.33282   0.96456
H          H       0.13718   0.34202   0.98156
