data_crystal

_cell_length_a    50.89210
_cell_length_b    42.18180
_cell_length_c    7.70360
_cell_angle_alpha 90.00000
_cell_angle_beta  84.12630
_cell_angle_gamma 90.00000

_space_group_name_Hall 'P 1'
_space_group_name_H-M_alt 'P 1'

loop_
_symmetry_equiv_pos_as_xyz
 'x,y,z'

loop_
_atom_site_label
_atom_site_type_symbol
_atom_site_fract_x
_atom_site_fract_y
_atom_site_fract_z
C          C       0.55276   0.98039   0.03535
C          C       0.55271   0.00990   0.03582
C          C       0.52779   0.02718   0.05322
C          C       0.50231   0.01258   0.05961
C          C       0.50236   0.98139   0.05911
C          C       0.52789   0.96492   0.05223
C          C       0.47673   0.02905   0.06470
C          C       0.45166   0.01358   0.05851
C          C       0.45171   0.98408   0.05805
C          C       0.47683   0.96678   0.06372
C          C       0.52752   0.05798   0.05620
C          C       0.50219   0.07333   0.06134
C          C       0.47695   0.05982   0.06743
C          C       0.47715   0.93599   0.06547
C          C       0.50244   0.92064   0.05893
C          C       0.52772   0.93415   0.05424
C          C       0.55334   0.91547   0.05489
C          C       0.45171   0.91917   0.07734
C          C       0.45144   0.07850   0.07986
C          C       0.55308   0.07479   0.05741
C          C       0.44594   0.10097   0.46135
C          C       0.42266   0.11928   0.47348
C          C       0.40393   0.11572   0.10616
C          C       0.40905   0.09298   0.22322
C          C       0.43252   0.07499   0.21157
C          C       0.43277   0.92408   0.20918
C          C       0.40935   0.90780   0.22029
C          C       0.40431   0.88541   0.10252
C          C       0.42305   0.88047   0.46970
C          C       0.44628   0.89709   0.45813
C          C       0.55659   0.89295   0.43440
C          C       0.57999   0.87460   0.43586
C          C       0.60110   0.87815   0.05949
C          C       0.59820   0.90093   0.17860
C          C       0.57464   0.91895   0.17756
C          C       0.57439   0.06977   0.17995
C          C       0.59789   0.08607   0.18153
C          C       0.60072   0.10863   0.06313
C          C       0.57960   0.11371   0.43964
C          C       0.55626   0.09705   0.43763
N          N       0.37970   0.13285   0.12467
C          C       0.37921   0.15998   0.08848
C          C       0.83829   0.65457   0.05737
C          C       0.84312   0.68394   0.08603
C          C       0.82153   0.70462   0.07683
C          C       0.86178   0.63270   0.06736
N          N       0.62511   0.12403   0.07128
C          C       0.62472   0.15120   0.03647
C          C       0.64976   0.16797   0.03537
C          C       0.64789   0.19780   0.49956
C          C       0.67137   0.21412   0.49768
C          C       0.69760   0.20122   0.03165
C          C       0.69938   0.17118   0.06633
C          C       0.67593   0.15491   0.06859
C          C       0.72220   0.21919   0.03427
C          C       0.72126   0.24741   0.09467
C          C       0.74433   0.26546   0.09870
C          C       0.77011   0.25667   0.04268
C          C       0.77231   0.22739   0.47862
C          C       0.74862   0.20886   0.47435
N          N       0.79501   0.21449   0.41482
S          S       0.78673   0.18171   0.35524
N          N       0.75416   0.18260   0.40731
C          C       0.79354   0.27631   0.04857
C          C       0.78892   0.30629   0.01987
C          C       0.81033   0.32538   0.02934
C          C       0.83721   0.31494   0.06782
C          C       0.84213   0.28522   0.09554
C          C       0.82062   0.26611   0.08572
C          C       0.86063   0.33511   0.07847
N          N       0.38013   0.87005   0.12051
C          C       0.37973   0.84294   0.08346
C          C       0.35469   0.82631   0.09227
C          C       0.35565   0.79662   0.05150
C          C       0.33213   0.78042   0.05840
C          C       0.30676   0.79333   0.10655
C          C       0.30596   0.82310   0.14908
C          C       0.32941   0.83927   0.14130
C          C       0.28181   0.77588   0.10750
C          C       0.27742   0.75434   0.48752
C          C       0.25380   0.73702   0.48402
C          C       0.23281   0.73997   0.10015
C          C       0.23631   0.76215   0.22833
C          C       0.26055   0.77990   0.23193
N          N       0.21897   0.76841   0.35529
S          S       0.23247   0.79460   0.46845
N          N       0.26075   0.79897   0.36165
C          C       0.20865   0.72134   0.09189
C          C       0.21178   0.69220   0.03838
C          C       0.18939   0.67445   0.02416
C          C       0.16300   0.68541   0.06393
C          C       0.15959   0.71424   0.11828
C          C       0.18210   0.73199   0.13259
C          C       0.13853   0.66667   0.04971
H          H       0.57196   0.96811   0.01830
H          H       0.80659   0.34842   0.00596
H          H       0.86293   0.27698   0.12530
H          H       0.82483   0.24316   0.10705
H          H       0.88084   0.32392   0.10948
H          H       0.39839   0.83059   0.04419
H          H       0.37510   0.78614   0.01515
H          H       0.33352   0.75735   0.02970
H          H       0.28670   0.83348   0.18757
H          H       0.32865   0.86223   0.17279
H          H       0.29232   0.75080   0.38714
H          H       0.25203   0.72123   0.38120
H          H       0.23222   0.68323   0.01093
H          H       0.19204   0.65196   0.48386
H          H       0.13917   0.72288   0.14932
H          H       0.17908   0.75423   0.17530
H          H       0.11888   0.67811   0.08574
N          N       0.86094   0.60494   0.04440
C          C       0.88503   0.58731   0.05984
C          C       0.91103   0.59575   0.00685
C          C       0.88266   0.55920   0.12563
C          C       0.93389   0.57679   0.02269
H          H       0.91311   0.61687   0.44795
C          C       0.90564   0.54051   0.14298
H          H       0.86254   0.55263   0.16523
C          C       0.93176   0.54882   0.09113
H          H       0.95372   0.58348   0.47803
H          H       0.90342   0.51916   0.19844
C          C       0.95667   0.52930   0.11197
C          C       0.95804   0.50048   0.04761
C          C       0.97944   0.53982   0.20177
C          C       0.98239   0.48265   0.07915
C          C       0.93632   0.48877   0.44430
H          H       0.97793   0.56164   0.25450
H          H       0.91865   0.50271   0.41013
N          N       0.85970   0.36293   0.05639
C          C       0.88320   0.37915   0.08726
C          C       0.87933   0.40741   0.15251
C          C       0.91012   0.36918   0.05021
C          C       0.90167   0.42477   0.18471
H          H       0.85852   0.41518   0.17978
C          C       0.93236   0.38681   0.08090
H          H       0.91350   0.34793   0.49213
C          C       0.92870   0.41491   0.14879
H          H       0.89823   0.44627   0.23933
C          C       0.35411   0.17845   0.09785
C          C       0.35498   0.20807   0.05801
C          C       0.33141   0.22598   0.06545
C          C       0.30608   0.21493   0.11322
C          C       0.30537   0.18522   0.15481
C          C       0.32887   0.16733   0.14648
C          C       0.28106   0.23419   0.11474
C          C       0.27660   0.25604   0.49545
C          C       0.25292   0.27508   0.49253
C          C       0.23194   0.27369   0.10859
C          C       0.23551   0.25126   0.23607
C          C       0.25981   0.23174   0.23908
N          N       0.21819   0.24629   0.36285
S          S       0.23177   0.21911   0.47516
N          N       0.26007   0.21267   0.36819
C          C       0.20772   0.29407   0.10095
C          C       0.21075   0.32298   0.04836
C          C       0.18830   0.34237   0.03473
C          C       0.16194   0.33333   0.07418
C          C       0.15862   0.30476   0.12761
C          C       0.18120   0.28537   0.14134
C          C       0.13741   0.35386   0.06058
N          N       0.62554   0.86097   0.06712
C          C       0.62524   0.83382   0.03146
C          C       0.65033   0.81522   0.02979
C          C       0.64856   0.78552   0.49304
C          C       0.67210   0.76748   0.49062
C          C       0.69829   0.77848   0.02497
C          C       0.69997   0.80841   0.06059
C          C       0.67647   0.82638   0.06339
C          C       0.72295   0.75871   0.02699
C          C       0.72211   0.73057   0.08649
C          C       0.74524   0.71083   0.08993
C          C       0.77099   0.71774   0.03415
C          C       0.77309   0.74686   0.47101
C          C       0.74934   0.76712   0.46736
N          N       0.79575   0.75809   0.40760
S          S       0.78736   0.79147   0.34907
N          N       0.75480   0.79297   0.40114
C          C       0.79449   0.69639   0.03940
C          C       0.78996   0.66674   0.00976
C          C       0.81144   0.64609   0.01859
H          H       0.57188   0.02078   0.01913
H          H       0.43223   0.02587   0.05071
H          H       0.43231   0.97320   0.04987
H          H       0.50222   0.09686   0.06825
H          H       0.50255   0.89710   0.06509
H          H       0.45992   0.10371   0.35617
H          H       0.41846   0.13585   0.37665
H          H       0.39446   0.09009   0.32482
H          H       0.43641   0.05804   0.30629
H          H       0.43661   0.94076   0.30443
H          H       0.39475   0.91176   0.32200
H          H       0.41890   0.86419   0.37235
H          H       0.46026   0.89331   0.35284
H          H       0.54072   0.89023   0.33581
H          H       0.58236   0.85802   0.33752
H          H       0.61460   0.90383   0.27308
H          H       0.57253   0.93593   0.27379
H          H       0.57234   0.05295   0.27564
H          H       0.61431   0.08199   0.27590
H          H       0.58192   0.13010   0.34182
H          H       0.54038   0.10092   0.33915
H          H       0.39783   0.17097   0.04957
H          H       0.37439   0.21712   0.02197
H          H       0.33272   0.24894   0.03747
H          H       0.28614   0.17625   0.19299
H          H       0.32819   0.14443   0.17726
H          H       0.29149   0.25849   0.39518
H          H       0.25110   0.29100   0.39021
H          H       0.23116   0.33046   0.02116
H          H       0.19088   0.36466   0.49513
H          H       0.13823   0.29761   0.15841
H          H       0.17825   0.26335   0.18335
H          H       0.11779   0.34386   0.09627
H          H       0.60592   0.82287   0.00181
H          H       0.62855   0.77660   0.46488
H          H       0.67030   0.74471   0.45809
H          H       0.71991   0.81742   0.08659
H          H       0.67782   0.84932   0.09192
H          H       0.70299   0.72318   0.13790
H          H       0.74251   0.68946   0.14359
H          H       0.76938   0.65996   0.47574
H          H       0.80778   0.62331   0.49450
H          H       0.86389   0.69067   0.11602
H          H       0.82567   0.72727   0.09889
H          H       0.88196   0.64242   0.09870
H          H       0.60536   0.16356   0.00720
H          H       0.62785   0.20818   0.47171
H          H       0.66949   0.23703   0.46588
H          H       0.71935   0.16071   0.09202
H          H       0.67736   0.13187   0.09639
H          H       0.70212   0.25620   0.14634
H          H       0.74153   0.28705   0.15304
H          H       0.76831   0.31456   0.48610
H          H       0.95297   0.37895   0.04853
C          C       0.95290   0.43299   0.18580
C          C       0.95481   0.46175   0.12398
C          C       0.97438   0.42113   0.28829
C          C       0.97830   0.47814   0.17104
C          C       0.93460   0.47474   0.00848
H          H       0.97238   0.39941   0.33893
H          H       0.91772   0.46181   0.46304
N          N       0.13683   0.38075   0.01361
C          C       0.11208   0.39743   0.01477
C          C       0.08623   0.38648   0.47045
C          C       0.11353   0.42703   0.05623
C          C       0.06267   0.40456   0.47095
H          H       0.08480   0.36401   0.43000
C          C       0.08985   0.44486   0.05856
H          H       0.13353   0.43552   0.08914
C          C       0.06388   0.43406   0.01516
H          H       0.04294   0.39586   0.43322
H          H       0.09139   0.46749   0.09539
C          C       0.03826   0.45268   0.02055
C          C       0.03517   0.47962   0.43337
C          C       0.01654   0.44332   0.11869
C          C       0.05565   0.48976   0.32077
C          C       0.01025   0.49686   0.45090
H          H       0.01937   0.42307   0.18871
H          H       0.07373   0.47595   0.29756
N          N       0.13804   0.63981   0.00189
C          C       0.11422   0.62393   0.02159
C          C       0.11762   0.59424   0.05998
C          C       0.08730   0.63576   0.49843
C          C       0.09491   0.57718   0.07989
H          H       0.13841   0.58507   0.07649
C          C       0.06467   0.61845   0.01652
H          H       0.08420   0.65832   0.46062
C          C       0.06792   0.58885   0.05778
H          H       0.09805   0.55446   0.11408
H          H       0.04406   0.62783   0.49484
C          C       0.04336   0.57107   0.08225
C          C       0.03957   0.54428   0.49633
C          C       0.02350   0.58107   0.19744
C          C       0.05795   0.53352   0.36763
C          C       0.01593   0.52781   0.03242
H          H       0.02695   0.60121   0.26599
H          H       0.07486   0.54676   0.33112
C          C       0.55276   0.98039   0.53535
C          C       0.55271   0.00990   0.53582
C          C       0.52779   0.02718   0.55322
C          C       0.50231   0.01258   0.55961
C          C       0.50236   0.98139   0.55911
C          C       0.52789   0.96492   0.55224
C          C       0.47673   0.02905   0.56470
C          C       0.45166   0.01358   0.55851
C          C       0.45171   0.98408   0.55805
C          C       0.47683   0.96678   0.56372
C          C       0.52752   0.05798   0.55620
C          C       0.50219   0.07333   0.56134
C          C       0.47695   0.05982   0.56743
C          C       0.47715   0.93599   0.56547
C          C       0.50244   0.92064   0.55893
C          C       0.52772   0.93415   0.55424
C          C       0.55334   0.91547   0.55488
C          C       0.45171   0.91917   0.57734
C          C       0.45144   0.07850   0.57986
C          C       0.55308   0.07479   0.55741
C          C       0.44594   0.10097   0.96135
C          C       0.42266   0.11928   0.97348
C          C       0.40393   0.11572   0.60616
C          C       0.40905   0.09298   0.72322
C          C       0.43252   0.07499   0.71156
C          C       0.43277   0.92408   0.70918
C          C       0.40935   0.90780   0.72029
C          C       0.40431   0.88541   0.60252
C          C       0.42305   0.88047   0.96970
C          C       0.44628   0.89709   0.95813
C          C       0.55659   0.89295   0.93440
C          C       0.57999   0.87460   0.93586
C          C       0.60110   0.87815   0.55949
C          C       0.59820   0.90093   0.67860
C          C       0.57464   0.91895   0.67756
C          C       0.57439   0.06977   0.67995
C          C       0.59789   0.08607   0.68153
C          C       0.60072   0.10863   0.56313
C          C       0.57960   0.11371   0.93964
C          C       0.55626   0.09705   0.93763
N          N       0.37970   0.13285   0.62467
C          C       0.37921   0.15998   0.58847
C          C       0.83829   0.65457   0.55737
C          C       0.84312   0.68394   0.58603
C          C       0.82153   0.70462   0.57683
C          C       0.86178   0.63270   0.56736
N          N       0.62511   0.12403   0.57129
C          C       0.62472   0.15120   0.53648
C          C       0.64976   0.16797   0.53537
C          C       0.64789   0.19780   0.99956
C          C       0.67137   0.21412   0.99768
C          C       0.69760   0.20122   0.53165
C          C       0.69938   0.17118   0.56633
C          C       0.67593   0.15491   0.56859
C          C       0.72220   0.21919   0.53427
C          C       0.72126   0.24741   0.59467
C          C       0.74433   0.26546   0.59870
C          C       0.77011   0.25667   0.54268
C          C       0.77231   0.22739   0.97862
C          C       0.74862   0.20886   0.97435
N          N       0.79501   0.21449   0.91482
S          S       0.78673   0.18171   0.85524
N          N       0.75416   0.18260   0.90731
C          C       0.79354   0.27631   0.54857
C          C       0.78892   0.30629   0.51987
C          C       0.81033   0.32538   0.52934
C          C       0.83721   0.31494   0.56782
C          C       0.84213   0.28522   0.59554
C          C       0.82062   0.26611   0.58572
C          C       0.86063   0.33511   0.57847
N          N       0.38013   0.87005   0.62051
C          C       0.37973   0.84294   0.58346
C          C       0.35469   0.82631   0.59227
C          C       0.35565   0.79662   0.55150
C          C       0.33213   0.78042   0.55840
C          C       0.30676   0.79333   0.60655
C          C       0.30596   0.82310   0.64908
C          C       0.32941   0.83927   0.64130
C          C       0.28181   0.77588   0.60750
C          C       0.27742   0.75434   0.98751
C          C       0.25380   0.73702   0.98402
C          C       0.23281   0.73997   0.60015
C          C       0.23631   0.76215   0.72833
C          C       0.26055   0.77990   0.73193
N          N       0.21897   0.76841   0.85529
S          S       0.23247   0.79460   0.96845
N          N       0.26075   0.79897   0.86165
C          C       0.20865   0.72134   0.59189
C          C       0.21178   0.69220   0.53838
C          C       0.18939   0.67445   0.52416
C          C       0.16300   0.68541   0.56393
C          C       0.15959   0.71424   0.61828
C          C       0.18210   0.73199   0.63258
C          C       0.13853   0.66667   0.54971
H          H       0.57196   0.96811   0.51830
H          H       0.80659   0.34842   0.50596
H          H       0.86293   0.27698   0.62530
H          H       0.82483   0.24316   0.60705
H          H       0.88084   0.32392   0.60948
H          H       0.39839   0.83059   0.54419
H          H       0.37510   0.78614   0.51515
H          H       0.33352   0.75735   0.52970
H          H       0.28670   0.83348   0.68757
H          H       0.32865   0.86223   0.67280
H          H       0.29232   0.75080   0.88714
H          H       0.25203   0.72123   0.88120
H          H       0.23222   0.68323   0.51092
H          H       0.19204   0.65196   0.98386
H          H       0.13917   0.72288   0.64932
H          H       0.17908   0.75423   0.67530
H          H       0.11888   0.67811   0.58574
N          N       0.86094   0.60494   0.54440
C          C       0.88503   0.58731   0.55983
C          C       0.91103   0.59575   0.50685
C          C       0.88266   0.55920   0.62563
C          C       0.93389   0.57679   0.52269
H          H       0.91311   0.61687   0.94795
C          C       0.90564   0.54051   0.64298
H          H       0.86254   0.55263   0.66523
C          C       0.93176   0.54882   0.59113
H          H       0.95372   0.58348   0.97803
H          H       0.90342   0.51916   0.69844
C          C       0.95667   0.52930   0.61198
C          C       0.95804   0.50048   0.54761
C          C       0.97944   0.53982   0.70177
C          C       0.98239   0.48265   0.57915
C          C       0.93632   0.48877   0.94430
H          H       0.97793   0.56164   0.75450
H          H       0.91865   0.50271   0.91013
N          N       0.85970   0.36293   0.55639
C          C       0.88320   0.37915   0.58726
C          C       0.87933   0.40741   0.65251
C          C       0.91012   0.36918   0.55021
C          C       0.90167   0.42477   0.68471
H          H       0.85852   0.41518   0.67978
C          C       0.93236   0.38681   0.58090
H          H       0.91350   0.34793   0.99213
C          C       0.92870   0.41491   0.64879
H          H       0.89823   0.44627   0.73933
C          C       0.35411   0.17845   0.59784
C          C       0.35498   0.20807   0.55801
C          C       0.33141   0.22598   0.56545
C          C       0.30608   0.21493   0.61322
C          C       0.30537   0.18522   0.65481
C          C       0.32887   0.16733   0.64648
C          C       0.28106   0.23419   0.61474
C          C       0.27660   0.25604   0.99545
C          C       0.25292   0.27508   0.99253
C          C       0.23194   0.27369   0.60859
C          C       0.23551   0.25126   0.73606
C          C       0.25981   0.23174   0.73908
N          N       0.21819   0.24629   0.86285
S          S       0.23177   0.21911   0.97516
N          N       0.26007   0.21267   0.86820
C          C       0.20772   0.29407   0.60095
C          C       0.21075   0.32298   0.54836
C          C       0.18830   0.34237   0.53473
C          C       0.16194   0.33333   0.57418
C          C       0.15862   0.30476   0.62762
C          C       0.18120   0.28537   0.64134
C          C       0.13741   0.35386   0.56058
N          N       0.62554   0.86097   0.56712
C          C       0.62524   0.83382   0.53146
C          C       0.65033   0.81522   0.52979
C          C       0.64856   0.78552   0.99304
C          C       0.67210   0.76748   0.99062
C          C       0.69829   0.77848   0.52497
C          C       0.69997   0.80841   0.56059
C          C       0.67647   0.82638   0.56339
C          C       0.72295   0.75871   0.52699
C          C       0.72211   0.73057   0.58649
C          C       0.74524   0.71083   0.58993
C          C       0.77099   0.71774   0.53416
C          C       0.77309   0.74686   0.97101
C          C       0.74934   0.76712   0.96736
N          N       0.79575   0.75809   0.90760
S          S       0.78736   0.79147   0.84907
N          N       0.75480   0.79297   0.90115
C          C       0.79449   0.69639   0.53940
C          C       0.78996   0.66674   0.50975
C          C       0.81144   0.64609   0.51860
H          H       0.57188   0.02078   0.51913
H          H       0.43223   0.02587   0.55071
H          H       0.43231   0.97320   0.54987
H          H       0.50222   0.09686   0.56825
H          H       0.50255   0.89710   0.56509
H          H       0.45992   0.10371   0.85617
H          H       0.41846   0.13585   0.87665
H          H       0.39446   0.09009   0.82482
H          H       0.43641   0.05804   0.80629
H          H       0.43661   0.94076   0.80443
H          H       0.39475   0.91176   0.82200
H          H       0.41890   0.86419   0.87235
H          H       0.46026   0.89331   0.85284
H          H       0.54072   0.89023   0.83581
H          H       0.58236   0.85802   0.83752
H          H       0.61460   0.90383   0.77308
H          H       0.57253   0.93593   0.77379
H          H       0.57234   0.05295   0.77564
H          H       0.61431   0.08199   0.77590
H          H       0.58192   0.13010   0.84182
H          H       0.54038   0.10092   0.83915
H          H       0.39783   0.17097   0.54957
H          H       0.37439   0.21712   0.52197
H          H       0.33272   0.24894   0.53747
H          H       0.28614   0.17625   0.69299
H          H       0.32819   0.14443   0.67726
H          H       0.29149   0.25849   0.89518
H          H       0.25110   0.29100   0.89021
H          H       0.23116   0.33046   0.52116
H          H       0.19088   0.36466   0.99513
H          H       0.13823   0.29761   0.65841
H          H       0.17825   0.26335   0.68335
H          H       0.11779   0.34386   0.59627
H          H       0.60592   0.82287   0.50181
H          H       0.62855   0.77660   0.96488
H          H       0.67030   0.74471   0.95809
H          H       0.71991   0.81742   0.58659
H          H       0.67782   0.84932   0.59192
H          H       0.70299   0.72318   0.63790
H          H       0.74251   0.68946   0.64358
H          H       0.76938   0.65996   0.97574
H          H       0.80778   0.62331   0.99450
H          H       0.86389   0.69067   0.61602
H          H       0.82567   0.72727   0.59889
H          H       0.88196   0.64242   0.59870
H          H       0.60536   0.16356   0.50720
H          H       0.62785   0.20818   0.97171
H          H       0.66949   0.23703   0.96588
H          H       0.71935   0.16071   0.59202
H          H       0.67736   0.13187   0.59639
H          H       0.70212   0.25620   0.64634
H          H       0.74153   0.28705   0.65304
H          H       0.76831   0.31456   0.98610
H          H       0.95297   0.37895   0.54853
C          C       0.95290   0.43299   0.68580
C          C       0.95481   0.46175   0.62398
C          C       0.97438   0.42113   0.78829
C          C       0.97830   0.47814   0.67104
C          C       0.93460   0.47474   0.50848
H          H       0.97238   0.39941   0.83893
H          H       0.91772   0.46181   0.96304
N          N       0.13683   0.38075   0.51361
C          C       0.11208   0.39743   0.51477
C          C       0.08623   0.38648   0.97045
C          C       0.11353   0.42703   0.55623
C          C       0.06267   0.40456   0.97095
H          H       0.08480   0.36401   0.92999
C          C       0.08985   0.44486   0.55856
H          H       0.13353   0.43552   0.58914
C          C       0.06388   0.43406   0.51516
H          H       0.04294   0.39586   0.93322
H          H       0.09139   0.46749   0.59539
C          C       0.03826   0.45268   0.52055
C          C       0.03517   0.47962   0.93337
C          C       0.01654   0.44332   0.61869
C          C       0.05565   0.48976   0.82077
C          C       0.01025   0.49686   0.95090
H          H       0.01937   0.42307   0.68871
H          H       0.07373   0.47595   0.79756
N          N       0.13804   0.63981   0.50189
C          C       0.11422   0.62393   0.52159
C          C       0.11762   0.59424   0.55998
C          C       0.08730   0.63576   0.99843
C          C       0.09491   0.57718   0.57989
H          H       0.13841   0.58507   0.57649
C          C       0.06467   0.61845   0.51652
H          H       0.08420   0.65832   0.96062
C          C       0.06792   0.58885   0.55777
H          H       0.09805   0.55446   0.61408
H          H       0.04406   0.62783   0.99484
C          C       0.04336   0.57107   0.58225
C          C       0.03957   0.54428   0.99633
C          C       0.02350   0.58107   0.69744
C          C       0.05795   0.53352   0.86763
C          C       0.01593   0.52781   0.53242
H          H       0.02695   0.60121   0.76599
H          H       0.07486   0.54676   0.83112
