data_crystal

_cell_length_a    46.55010
_cell_length_b    55.93380
_cell_length_c    8.05220
_cell_angle_alpha 90.00000
_cell_angle_beta  90.00000
_cell_angle_gamma 90.00000

_space_group_name_Hall 'P 1'
_space_group_name_H-M_alt 'P 1'

loop_
_symmetry_equiv_pos_as_xyz
 'x,y,z'

loop_
_atom_site_label
_atom_site_type_symbol
_atom_site_fract_x
_atom_site_fract_y
_atom_site_fract_z
C          C       0.85403   0.66698   0.33885
C          C       0.83042   0.68462   0.34593
C          C       0.83488   0.70779   0.28410
C          C       0.81250   0.72445   0.28254
C          C       0.78524   0.71823   0.34277
C          C       0.78093   0.69525   0.40752
C          C       0.80332   0.67862   0.40964
C          C       0.76152   0.73588   0.34222
C          C       0.76476   0.75663   0.42380
C          C       0.74229   0.77531   0.42659
C          C       0.71706   0.77286   0.34759
C          C       0.71199   0.75124   0.23909
C          C       0.73514   0.73191   0.23675
N          N       0.68580   0.74413   0.22779
S          S       0.70500   0.72585   0.37206
N          N       0.72657   0.71013   0.22460
C          C       0.69552   0.79234   0.35780
C          C       0.70233   0.81557   0.30439
C          C       0.68238   0.83415   0.32091
C          C       0.65523   0.82978   0.39054
C          C       0.64840   0.80650   0.44182
C          C       0.66838   0.78801   0.42648
C          C       0.63320   0.84870   0.40324
C          C       0.93162   0.56750   0.37007
C          C       0.92552   0.54382   0.31822
C          C       0.94771   0.52555   0.31050
C          C       0.97638   0.53629   0.30101
C          C       0.98221   0.55868   0.36519
C          C       0.95999   0.57358   0.40955
C          C       0.90988   0.58699   0.36811
C          C       0.91800   0.60988   0.31304
C          C       0.89909   0.62912   0.32093
C          C       0.87099   0.62587   0.38053
C          C       0.86244   0.60288   0.42981
C          C       0.88162   0.58355   0.42364
N          N       0.85031   0.64504   0.38797
N          N       0.99984   0.52267   0.23990
N          N       0.99991   0.49764   0.24202
N          N       0.84961   0.37635   0.39470
C          C       0.88140   0.43758   0.42620
C          C       0.86196   0.41848   0.43199
C          C       0.87041   0.39531   0.38659
C          C       0.89871   0.39165   0.33117
C          C       0.91780   0.41067   0.32233
C          C       0.60046   0.09359   0.46254
C          C       0.62039   0.11220   0.47340
C          C       0.61381   0.13484   0.41035
C          C       0.58661   0.13875   0.33907
C          C       0.56661   0.12022   0.32966
C          C       0.41440   0.12200   0.48963
C          C       0.39449   0.14068   0.47381
C          C       0.36763   0.13893   0.39232
C          C       0.36778   0.11888   0.28125
C          C       0.38495   0.09868   0.30890
N          N       0.63557   0.15300   0.40859
N          N       0.52548   0.01277   0.00061
N          N       0.48792   0.00502   0.23640
N          N       0.63980   0.87125   0.39288
C          C       0.39022   0.92961   0.29159
C          C       0.37152   0.91023   0.27402
C          C       0.37885   0.88783   0.33850
C          C       0.40533   0.88504   0.41997
C          C       0.42414   0.90431   0.43583
C          C       0.57302   0.90606   0.29376
C          C       0.59215   0.88699   0.30990
C          C       0.61892   0.89021   0.38726
C          C       0.62625   0.91296   0.44677
C          C       0.60720   0.93216   0.42864
C          C       0.41666   0.92680   0.37312
C          C       0.58041   0.92883   0.35211
C          C       0.53167   0.94779   0.36894
C          C       0.56083   0.94920   0.32349
C          C       0.57102   0.96989   0.24463
C          C       0.55237   0.98869   0.20915
C          C       0.51301   0.96701   0.33691
C          C       0.52365   0.98728   0.25603
C          C       0.46501   0.94656   0.36330
C          C       0.48262   0.96664   0.38930
C          C       0.47068   0.98725   0.45927
C          C       0.44169   0.98815   0.00103
C          C       0.42407   0.96855   0.47043
C          C       0.43554   0.94757   0.40197
C          C       0.15071   0.66096   0.39208
C          C       0.17351   0.67917   0.38469
C          C       0.16786   0.70213   0.44662
C          C       0.18946   0.71939   0.45072
C          C       0.21704   0.71395   0.39271
C          C       0.22255   0.69124   0.32669
C          C       0.20098   0.67393   0.32304
C          C       0.23985   0.73225   0.39591
C          C       0.23571   0.75296   0.31546
C          C       0.25743   0.77218   0.31379
C          C       0.28257   0.77022   0.39345
C          C       0.28844   0.74880   0.00239
C          C       0.26603   0.72890   0.00318
N          N       0.31477   0.74242   0.01534
S          S       0.29664   0.72367   0.36965
N          N       0.27546   0.70736   0.01577
C          C       0.30372   0.78986   0.38114
C          C       0.29645   0.81312   0.43094
H          H       0.87412   0.67277   0.28571
H          H       0.85569   0.71297   0.23644
H          H       0.81637   0.74216   0.23331
H          H       0.76029   0.69027   0.45836
H          H       0.79941   0.66109   0.46139
H          H       0.78399   0.75971   0.49588
H          H       0.74622   0.79102   0.00134
H          H       0.72304   0.81921   0.24906
H          H       0.68800   0.85182   0.27677
H          H       0.62759   0.80267   0.49531
H          H       0.66274   0.77037   0.47064
H          H       0.61106   0.84336   0.42186
H          H       0.90389   0.53909   0.28155
H          H       0.94617   0.51035   0.42651
H          H       0.96531   0.59097   0.45948
H          H       0.93921   0.61298   0.26238
H          H       0.90685   0.64622   0.27862
H          H       0.84066   0.59994   0.47203
H          H       0.87452   0.56608   0.46379
H          H       0.87441   0.45520   0.46375
H          H       0.84004   0.42170   0.47093
H          H       0.90649   0.37434   0.29336
H          H       0.93909   0.40726   0.27369
H          H       0.96530   0.42958   0.46496
H          H       0.94390   0.51006   0.19781
H          H       0.90401   0.48133   0.28392
H          H       0.60836   0.18168   0.44528
H          H       0.66260   0.25293   0.48370
H          H       0.62629   0.22171   0.00912
H          H       0.68475   0.17075   0.29251
H          H       0.72111   0.20240   0.26395
H          H       0.74554   0.23053   0.01309
H          H       0.78362   0.26161   0.00738
H          H       0.79897   0.36040   0.47152
H          H       0.76008   0.33102   0.47425
H          H       0.81563   0.27931   0.24257
H          H       0.85483   0.30861   0.24156
H          H       0.87312   0.34867   0.28949
H          H       0.39324   0.05638   0.02124
H          H       0.42427   0.02142   0.06718
H          H       0.46659   0.09690   0.35560
H          H       0.55341   0.02144   0.19351
H          H       0.58633   0.05468   0.25206
H          H       0.51629   0.09501   0.46200
H          H       0.60620   0.07611   0.00944
H          H       0.64113   0.10895   0.02985
H          H       0.58131   0.15581   0.28413
H          H       0.54623   0.12338   0.26887
H          H       0.43420   0.12490   0.05673
H          H       0.40154   0.16130   0.48541
H          H       0.35006   0.11667   0.19600
H          H       0.38054   0.08237   0.24179
C          C       0.90980   0.43374   0.37398
C          C       0.96002   0.44695   0.41448
C          C       0.98225   0.46179   0.36956
C          C       0.97647   0.48414   0.30449
C          C       0.94777   0.49488   0.31235
C          C       0.92561   0.47665   0.32149
C          C       0.93164   0.45307   0.37487
C          C       0.63007   0.17569   0.42046
C          C       0.66764   0.23511   0.44078
C          C       0.64694   0.21726   0.45607
C          C       0.65288   0.19383   0.40554
C          C       0.67982   0.18860   0.33597
C          C       0.70056   0.20659   0.31954
C          C       0.69453   0.23000   0.37204
N          N       0.72650   0.31166   0.23759
S          S       0.70478   0.29605   0.38477
N          N       0.68553   0.27793   0.23996
C          C       0.73491   0.28983   0.24962
C          C       0.71159   0.27068   0.25159
C          C       0.71656   0.24902   0.35994
C          C       0.74175   0.24628   0.43839
C          C       0.76437   0.26482   0.43581
C          C       0.76113   0.28565   0.35525
C          C       0.80282   0.34284   0.42018
C          C       0.78059   0.32611   0.42134
C          C       0.78484   0.30319   0.35568
C          C       0.81188   0.29699   0.29268
C          C       0.83414   0.31372   0.29155
C          C       0.82974   0.33684   0.35386
C          C       0.85321   0.35444   0.34462
C          C       0.42779   0.07931   0.43824
C          C       0.41595   0.05777   0.49514
C          C       0.43340   0.03790   0.02102
C          C       0.46253   0.03907   0.48412
C          C       0.47493   0.06011   0.42330
C          C       0.45746   0.08053   0.40379
C          C       0.51651   0.03905   0.29710
C          C       0.50558   0.05967   0.37304
C          C       0.54539   0.03739   0.25331
C          C       0.56394   0.05625   0.28690
C          C       0.55361   0.07723   0.36115
C          C       0.52425   0.07898   0.40263
C          C       0.57348   0.09740   0.38898
C          C       0.40871   0.10017   0.41371
C          C       0.31617   0.83180   0.41194
C          C       0.34333   0.82738   0.34247
C          C       0.35054   0.80407   0.29473
C          C       0.33082   0.78553   0.31263
C          C       0.36514   0.84632   0.32783
C          C       0.03225   0.52821   0.44973
C          C       0.02575   0.55080   0.39146
C          C       0.06098   0.51778   0.43449
C          C       0.08290   0.53626   0.42358
C          C       0.07613   0.56017   0.38043
C          C       0.04750   0.56615   0.34706
C          C       0.09763   0.57986   0.38329
C          C       0.12588   0.57673   0.32686
C          C       0.14463   0.59632   0.31759
C          C       0.13550   0.61930   0.36344
C          C       0.10754   0.62220   0.42539
C          C       0.08919   0.60268   0.43824
N          N       0.15558   0.63884   0.35092
N          N       0.15986   0.36790   0.35152
C          C       0.09226   0.40258   0.42860
C          C       0.11111   0.38351   0.41494
C          C       0.13943   0.38719   0.36152
C          C       0.14804   0.41043   0.31834
C          C       0.12863   0.42964   0.32681
C          C       0.10021   0.42579   0.37937
C          C       0.04939   0.43834   0.35396
C          C       0.07804   0.44505   0.38048
C          C       0.08413   0.46920   0.42098
C          C       0.06155   0.48711   0.43561
C          C       0.02737   0.45314   0.40186
C          C       0.03327   0.47599   0.45616
C          C       0.37650   0.16446   0.36555
C          C       0.33473   0.22040   0.28431
C          C       0.35445   0.20168   0.27445
C          C       0.35143   0.18113   0.37773
C          C       0.32570   0.17928   0.47417
C          C       0.30473   0.19709   0.46699
C          C       0.30959   0.21807   0.37713
N          N       0.27991   0.30031   0.01252
S          S       0.30066   0.28496   0.35946
N          N       0.32064   0.26636   0.49759
C          C       0.27126   0.27855   0.49891
C          C       0.29438   0.25931   0.49157
C          C       0.28863   0.23786   0.38323
C          C       0.26318   0.23552   0.30669
C          C       0.24094   0.25433   0.31224
C          C       0.24464   0.27484   0.39577
C          C       0.20492   0.33264   0.32233
C          C       0.22637   0.31523   0.32127
C          C       0.22165   0.29295   0.39552
C          C       0.19495   0.28801   0.46771
C          C       0.17356   0.30551   0.47019
C          C       0.17856   0.32807   0.39974
C          C       0.15623   0.34660   0.41281
N          N       0.35373   0.15827   0.29343
N          N       0.35821   0.86879   0.33377
H          H       0.38399   0.94688   0.24298
H          H       0.35119   0.91273   0.21130
H          H       0.41091   0.86827   0.47824
H          H       0.44396   0.90196   0.00396
H          H       0.55292   0.90331   0.22928
H          H       0.58646   0.86998   0.25549
H          H       0.64678   0.91585   0.00636
H          H       0.61341   0.94965   0.47337
H          H       0.52381   0.93212   0.43334
H          H       0.59329   0.97128   0.20769
H          H       0.56011   0.00437   0.14504
H          H       0.47386   0.93059   0.30722
H          H       0.43279   0.00417   0.05520
H          H       0.40151   0.96965   0.00181
H          H       0.13020   0.66653   0.44037
H          H       0.14673   0.70667   0.49281
H          H       0.18476   0.73692   0.00081
H          H       0.24352   0.68699   0.27721
H          H       0.20578   0.65653   0.27160
H          H       0.21648   0.75553   0.24255
H          H       0.25309   0.78771   0.23784
H          H       0.27571   0.81670   0.48623
H          H       0.31034   0.84954   0.45354
H          H       0.37137   0.80025   0.24163
H          H       0.33674   0.76780   0.27176
H          H       0.38737   0.84107   0.31217
H          H       0.06607   0.50257   0.04743
H          H       0.10476   0.53157   0.45530
H          H       0.04160   0.58373   0.30273
H          H       0.13330   0.55932   0.28749
H          H       0.16637   0.59363   0.27430
H          H       0.09930   0.63927   0.46533
H          H       0.06813   0.60559   0.49128
H          H       0.07114   0.39886   0.47805
H          H       0.10292   0.36606   0.44597
H          H       0.16989   0.41365   0.27835
H          H       0.13574   0.44729   0.29073
H          H       0.04371   0.42069   0.31048
H          H       0.10607   0.47470   0.44328
H          H       0.06179   0.50238   0.31950
H          H       0.38178   0.16409   0.01629
H          H       0.33894   0.23667   0.21712
H          H       0.37370   0.20428   0.20126
H          H       0.32109   0.16325   0.04414
H          H       0.28497   0.19476   0.03505
H          H       0.25876   0.21972   0.23394
H          H       0.22160   0.25163   0.24051
H          H       0.20904   0.34963   0.26296
H          H       0.24663   0.31910   0.26192
H          H       0.19081   0.27081   0.02424
H          H       0.15318   0.30148   0.02822
H          H       0.13718   0.34202   0.48156
C          C       0.85403   0.66698   0.83885
C          C       0.83042   0.68462   0.84593
C          C       0.83488   0.70779   0.78410
C          C       0.81250   0.72445   0.78254
C          C       0.78524   0.71823   0.84278
C          C       0.78093   0.69525   0.90751
C          C       0.80332   0.67862   0.90964
C          C       0.76152   0.73588   0.84222
C          C       0.76476   0.75663   0.92380
C          C       0.74229   0.77531   0.92659
C          C       0.71706   0.77286   0.84759
C          C       0.71199   0.75124   0.73909
C          C       0.73514   0.73191   0.73675
N          N       0.68580   0.74413   0.72779
S          S       0.70500   0.72585   0.87207
N          N       0.72657   0.71013   0.72460
C          C       0.69552   0.79234   0.85780
C          C       0.70233   0.81557   0.80439
C          C       0.68238   0.83415   0.82091
C          C       0.65523   0.82978   0.89054
C          C       0.64840   0.80650   0.94182
C          C       0.66838   0.78801   0.92648
C          C       0.63320   0.84870   0.90324
C          C       0.93162   0.56750   0.87008
C          C       0.92552   0.54382   0.81822
C          C       0.94771   0.52555   0.81050
C          C       0.97638   0.53629   0.80101
C          C       0.98221   0.55868   0.86519
C          C       0.95999   0.57358   0.90955
C          C       0.90988   0.58699   0.86811
C          C       0.91800   0.60988   0.81304
C          C       0.89909   0.62912   0.82093
C          C       0.87099   0.62587   0.88053
C          C       0.86244   0.60288   0.92981
C          C       0.88162   0.58355   0.92364
N          N       0.85031   0.64504   0.88796
N          N       0.99984   0.52267   0.73990
N          N       0.99991   0.49764   0.74203
N          N       0.84961   0.37635   0.89470
C          C       0.88140   0.43758   0.92620
C          C       0.86196   0.41848   0.93199
C          C       0.87041   0.39531   0.88659
C          C       0.89871   0.39165   0.83117
C          C       0.91780   0.41067   0.82233
C          C       0.60046   0.09359   0.96254
C          C       0.62039   0.11220   0.97340
C          C       0.61381   0.13484   0.91034
C          C       0.58661   0.13875   0.83907
C          C       0.56661   0.12022   0.82966
C          C       0.41440   0.12200   0.98963
C          C       0.39449   0.14068   0.97381
C          C       0.36763   0.13893   0.89232
C          C       0.36778   0.11888   0.78125
C          C       0.38495   0.09868   0.80890
N          N       0.63557   0.15300   0.90859
N          N       0.52548   0.01277   0.50061
N          N       0.48792   0.00502   0.73640
N          N       0.63980   0.87125   0.89288
C          C       0.39022   0.92961   0.79159
C          C       0.37152   0.91023   0.77402
C          C       0.37885   0.88783   0.83850
C          C       0.40533   0.88504   0.91997
C          C       0.42414   0.90431   0.93583
C          C       0.57302   0.90606   0.79376
C          C       0.59215   0.88699   0.80990
C          C       0.61892   0.89021   0.88726
C          C       0.62625   0.91296   0.94677
C          C       0.60720   0.93216   0.92864
C          C       0.41666   0.92680   0.87312
C          C       0.58041   0.92883   0.85211
C          C       0.53167   0.94779   0.86895
C          C       0.56083   0.94920   0.82349
C          C       0.57102   0.96989   0.74464
C          C       0.55237   0.98869   0.70915
C          C       0.51301   0.96701   0.83692
C          C       0.52365   0.98728   0.75603
C          C       0.46501   0.94656   0.86330
C          C       0.48262   0.96664   0.88930
C          C       0.47068   0.98725   0.95927
C          C       0.44169   0.98815   0.50104
C          C       0.42407   0.96855   0.97044
C          C       0.43554   0.94757   0.90197
C          C       0.15071   0.66096   0.89208
C          C       0.17351   0.67917   0.88469
C          C       0.16786   0.70213   0.94662
C          C       0.18946   0.71939   0.95072
C          C       0.21704   0.71395   0.89272
C          C       0.22255   0.69124   0.82669
C          C       0.20098   0.67393   0.82304
C          C       0.23985   0.73225   0.89591
C          C       0.23571   0.75296   0.81546
C          C       0.25743   0.77218   0.81379
C          C       0.28257   0.77022   0.89345
C          C       0.28844   0.74880   0.50239
C          C       0.26603   0.72890   0.50318
N          N       0.31477   0.74242   0.51534
S          S       0.29664   0.72367   0.86965
N          N       0.27546   0.70736   0.51576
C          C       0.30372   0.78986   0.88114
C          C       0.29645   0.81312   0.93094
H          H       0.87412   0.67277   0.78571
H          H       0.85569   0.71297   0.73644
H          H       0.81637   0.74216   0.73331
H          H       0.76029   0.69027   0.95836
H          H       0.79941   0.66109   0.96139
H          H       0.78399   0.75971   0.99587
H          H       0.74622   0.79102   0.50133
H          H       0.72304   0.81921   0.74906
H          H       0.68800   0.85182   0.77677
H          H       0.62759   0.80267   0.99531
H          H       0.66274   0.77037   0.97064
H          H       0.61106   0.84336   0.92186
H          H       0.90389   0.53909   0.78155
H          H       0.94617   0.51035   0.92651
H          H       0.96531   0.59097   0.95948
H          H       0.93921   0.61298   0.76238
H          H       0.90685   0.64622   0.77861
H          H       0.84066   0.59994   0.97203
H          H       0.87452   0.56608   0.96379
H          H       0.87441   0.45520   0.96375
H          H       0.84004   0.42170   0.97093
H          H       0.90649   0.37434   0.79335
H          H       0.93909   0.40726   0.77368
H          H       0.96530   0.42958   0.96496
H          H       0.94390   0.51006   0.69781
H          H       0.90401   0.48133   0.78391
H          H       0.60836   0.18168   0.94528
H          H       0.66260   0.25293   0.98370
H          H       0.62629   0.22171   0.50912
H          H       0.68475   0.17075   0.79251
H          H       0.72111   0.20240   0.76395
H          H       0.74554   0.23053   0.51309
H          H       0.78362   0.26161   0.50738
H          H       0.79897   0.36040   0.97152
H          H       0.76008   0.33102   0.97425
H          H       0.81563   0.27931   0.74257
H          H       0.85483   0.30861   0.74156
H          H       0.87312   0.34867   0.78949
H          H       0.39324   0.05638   0.52124
H          H       0.42427   0.02142   0.56718
H          H       0.46659   0.09690   0.85560
H          H       0.55341   0.02144   0.69351
H          H       0.58633   0.05468   0.75206
H          H       0.51629   0.09501   0.96200
H          H       0.60620   0.07611   0.50944
H          H       0.64113   0.10895   0.52985
H          H       0.58131   0.15581   0.78413
H          H       0.54623   0.12338   0.76887
H          H       0.43420   0.12490   0.55673
H          H       0.40154   0.16130   0.98541
H          H       0.35006   0.11667   0.69600
H          H       0.38054   0.08237   0.74180
C          C       0.90980   0.43374   0.87398
C          C       0.96002   0.44695   0.91448
C          C       0.98225   0.46179   0.86956
C          C       0.97647   0.48414   0.80449
C          C       0.94777   0.49488   0.81235
C          C       0.92561   0.47665   0.82149
C          C       0.93164   0.45307   0.87487
C          C       0.63007   0.17569   0.92045
C          C       0.66764   0.23511   0.94078
C          C       0.64694   0.21726   0.95607
C          C       0.65288   0.19383   0.90555
C          C       0.67982   0.18860   0.83597
C          C       0.70056   0.20659   0.81955
C          C       0.69453   0.23000   0.87204
N          N       0.72650   0.31166   0.73759
S          S       0.70478   0.29605   0.88476
N          N       0.68553   0.27793   0.73996
C          C       0.73491   0.28983   0.74962
C          C       0.71159   0.27068   0.75159
C          C       0.71656   0.24902   0.85994
C          C       0.74175   0.24628   0.93839
C          C       0.76437   0.26482   0.93581
C          C       0.76113   0.28565   0.85525
C          C       0.80282   0.34284   0.92018
C          C       0.78059   0.32611   0.92134
C          C       0.78484   0.30319   0.85568
C          C       0.81188   0.29699   0.79268
C          C       0.83414   0.31372   0.79155
C          C       0.82974   0.33684   0.85386
C          C       0.85321   0.35444   0.84462
C          C       0.42779   0.07931   0.93824
C          C       0.41595   0.05777   0.99514
C          C       0.43340   0.03790   0.52102
C          C       0.46253   0.03907   0.98412
C          C       0.47493   0.06011   0.92330
C          C       0.45746   0.08053   0.90379
C          C       0.51651   0.03905   0.79710
C          C       0.50558   0.05967   0.87304
C          C       0.54539   0.03739   0.75331
C          C       0.56394   0.05625   0.78690
C          C       0.55361   0.07723   0.86115
C          C       0.52425   0.07898   0.90262
C          C       0.57348   0.09740   0.88898
C          C       0.40871   0.10017   0.91371
C          C       0.31617   0.83180   0.91194
C          C       0.34333   0.82738   0.84247
C          C       0.35054   0.80407   0.79473
C          C       0.33082   0.78553   0.81263
C          C       0.36514   0.84632   0.82783
C          C       0.03225   0.52821   0.94974
C          C       0.02575   0.55080   0.89146
C          C       0.06098   0.51778   0.93449
C          C       0.08290   0.53626   0.92358
C          C       0.07613   0.56017   0.88043
C          C       0.04750   0.56615   0.84706
C          C       0.09763   0.57986   0.88329
C          C       0.12588   0.57673   0.82686
C          C       0.14463   0.59632   0.81759
C          C       0.13550   0.61930   0.86344
C          C       0.10754   0.62220   0.92539
C          C       0.08919   0.60268   0.93824
N          N       0.15558   0.63884   0.85093
N          N       0.15986   0.36790   0.85152
C          C       0.09226   0.40258   0.92860
C          C       0.11111   0.38351   0.91494
C          C       0.13943   0.38719   0.86153
C          C       0.14804   0.41043   0.81834
C          C       0.12863   0.42964   0.82681
C          C       0.10021   0.42579   0.87936
C          C       0.04939   0.43834   0.85396
C          C       0.07804   0.44505   0.88048
C          C       0.08413   0.46920   0.92099
C          C       0.06155   0.48711   0.93562
C          C       0.02737   0.45314   0.90185
C          C       0.03327   0.47599   0.95616
C          C       0.37650   0.16446   0.86555
C          C       0.33473   0.22040   0.78431
C          C       0.35445   0.20168   0.77445
C          C       0.35143   0.18113   0.87773
C          C       0.32570   0.17928   0.97417
C          C       0.30473   0.19709   0.96699
C          C       0.30959   0.21807   0.87713
N          N       0.27991   0.30031   0.51252
S          S       0.30066   0.28496   0.85946
N          N       0.32064   0.26636   0.99759
C          C       0.27126   0.27855   0.99891
C          C       0.29438   0.25931   0.99157
C          C       0.28863   0.23786   0.88323
C          C       0.26318   0.23552   0.80669
C          C       0.24094   0.25433   0.81224
C          C       0.24464   0.27484   0.89576
C          C       0.20492   0.33264   0.82233
C          C       0.22637   0.31523   0.82127
C          C       0.22165   0.29295   0.89552
C          C       0.19495   0.28801   0.96771
C          C       0.17356   0.30551   0.97018
C          C       0.17856   0.32807   0.89973
C          C       0.15623   0.34660   0.91281
N          N       0.35373   0.15827   0.79343
N          N       0.35821   0.86879   0.83377
H          H       0.38399   0.94688   0.74298
H          H       0.35119   0.91273   0.71130
H          H       0.41091   0.86827   0.97824
H          H       0.44396   0.90196   0.50396
H          H       0.55292   0.90331   0.72928
H          H       0.58646   0.86998   0.75549
H          H       0.64678   0.91585   0.50635
H          H       0.61341   0.94965   0.97338
H          H       0.52381   0.93212   0.93334
H          H       0.59329   0.97128   0.70769
H          H       0.56011   0.00437   0.64504
H          H       0.47386   0.93059   0.80722
H          H       0.43279   0.00417   0.55521
H          H       0.40151   0.96965   0.50181
H          H       0.13020   0.66653   0.94037
H          H       0.14673   0.70667   0.99281
H          H       0.18476   0.73692   0.50082
H          H       0.24352   0.68699   0.77721
H          H       0.20578   0.65653   0.77160
H          H       0.21648   0.75553   0.74255
H          H       0.25309   0.78771   0.73784
H          H       0.27571   0.81670   0.98623
H          H       0.31034   0.84954   0.95353
H          H       0.37137   0.80025   0.74163
H          H       0.33674   0.76780   0.77176
H          H       0.38737   0.84107   0.81218
H          H       0.06607   0.50257   0.54742
H          H       0.10476   0.53157   0.95530
H          H       0.04160   0.58373   0.80273
H          H       0.13330   0.55932   0.78749
H          H       0.16637   0.59363   0.77429
H          H       0.09930   0.63927   0.96533
H          H       0.06813   0.60559   0.99129
H          H       0.07114   0.39886   0.97805
H          H       0.10292   0.36606   0.94597
H          H       0.16989   0.41365   0.77835
H          H       0.13574   0.44729   0.79073
H          H       0.04371   0.42069   0.81047
H          H       0.10607   0.47470   0.94328
H          H       0.06179   0.50238   0.81950
H          H       0.38178   0.16409   0.51629
H          H       0.33894   0.23667   0.71712
H          H       0.37370   0.20428   0.70126
H          H       0.32109   0.16325   0.54413
H          H       0.28497   0.19476   0.53505
H          H       0.25876   0.21972   0.73394
H          H       0.22160   0.25163   0.74051
H          H       0.20904   0.34963   0.76296
H          H       0.24663   0.31910   0.76192
H          H       0.19081   0.27081   0.52424
H          H       0.15318   0.30148   0.52821
H          H       0.13718   0.34202   0.98156
