data_crystal

_cell_length_a    19.57290
_cell_length_b    36.64780
_cell_length_c    35.06730
_cell_angle_alpha 90.00000
_cell_angle_beta  90.00000
_cell_angle_gamma 90.00000

_space_group_name_Hall 'P 1'
_space_group_name_H-M_alt 'P 1'

loop_
_symmetry_equiv_pos_as_xyz
 'x,y,z'

loop_
_atom_site_label
_atom_site_type_symbol
_atom_site_fract_x
_atom_site_fract_y
_atom_site_fract_z
C          C       0.12692   0.03330   0.12076
C          C       0.87308   0.96670   0.12076
C          C       0.12692   0.96670   0.12076
C          C       0.87308   0.03330   0.12076
C          C       0.62692   0.53330   0.62076
C          C       0.37308   0.46670   0.62076
C          C       0.62692   0.46670   0.62076
C          C       0.37308   0.53330   0.62076
C          C       0.14510   0.06920   0.13674
C          C       0.85490   0.93080   0.13674
C          C       0.14510   0.93080   0.13674
C          C       0.85490   0.06920   0.13674
C          C       0.64510   0.56920   0.63674
C          C       0.35490   0.43080   0.63674
C          C       0.64510   0.43080   0.63674
C          C       0.35490   0.56920   0.63674
N          N       0.16782   0.07356   0.82392
N          N       0.83218   0.92644   0.82392
N          N       0.16782   0.92644   0.82392
N          N       0.83218   0.07356   0.82392
N          N       0.66782   0.57356   0.32392
N          N       0.33218   0.42644   0.32392
N          N       0.66782   0.42644   0.32392
N          N       0.33218   0.57356   0.32392
C          C       0.64816   0.35930   0.32049
C          C       0.35184   0.64070   0.32049
C          C       0.64816   0.64070   0.32049
C          C       0.35184   0.35930   0.32049
C          C       0.14816   0.85930   0.82049
C          C       0.85184   0.14070   0.82049
C          C       0.14816   0.14070   0.82049
C          C       0.85184   0.85930   0.82049
C          C       0.68186   0.39103   0.30771
C          C       0.31814   0.60897   0.30771
C          C       0.68186   0.60897   0.30771
C          C       0.31814   0.39103   0.30771
C          C       0.18186   0.89103   0.80771
C          C       0.81814   0.10897   0.80771
C          C       0.18186   0.10897   0.80771
C          C       0.81814   0.89103   0.80771
C          C       0.90829   0.03291   0.90924
C          C       0.09171   0.96709   0.90924
C          C       0.90829   0.96709   0.90924
C          C       0.09171   0.03291   0.90924
C          C       0.40829   0.53291   0.40924
C          C       0.59171   0.46709   0.40924
C          C       0.40829   0.46709   0.40924
C          C       0.59171   0.53291   0.40924
C          C       0.72976   0.61208   0.71695
C          C       0.27024   0.38792   0.71695
C          C       0.72976   0.38792   0.71695
C          C       0.27024   0.61208   0.71695
C          C       0.22976   0.11208   0.21695
C          C       0.77024   0.88792   0.21695
C          C       0.22976   0.88792   0.21695
C          C       0.77024   0.11208   0.21695
C          C       0.16471   0.82518   0.18973
C          C       0.83529   0.17482   0.18973
C          C       0.16471   0.17482   0.18973
C          C       0.83529   0.82518   0.18973
C          C       0.66471   0.32518   0.68973
C          C       0.33529   0.67482   0.68973
C          C       0.66471   0.67482   0.68973
C          C       0.33529   0.32518   0.68973
C          C       0.24642   0.85365   0.23209
C          C       0.75358   0.14635   0.23209
C          C       0.24642   0.14635   0.23209
C          C       0.75358   0.85365   0.23209
C          C       0.74642   0.35365   0.73209
C          C       0.25358   0.64635   0.73209
C          C       0.74642   0.64635   0.73209
C          C       0.25358   0.35365   0.73209
C          C       0.21469   0.82177   0.21825
C          C       0.78531   0.17823   0.21825
C          C       0.21469   0.17823   0.21825
C          C       0.78531   0.82177   0.21825
C          C       0.71469   0.32177   0.71825
C          C       0.28531   0.67823   0.71825
C          C       0.71469   0.67823   0.71825
C          C       0.28531   0.32177   0.71825
C          C       0.74810   0.28003   0.22302
C          C       0.25190   0.71997   0.22302
C          C       0.74810   0.71997   0.22302
C          C       0.25190   0.28003   0.22302
C          C       0.24810   0.78003   0.72302
C          C       0.75190   0.21997   0.72302
C          C       0.24810   0.21997   0.72302
C          C       0.75190   0.78003   0.72302
C          C       0.73542   0.25456   0.28625
C          C       0.26458   0.74544   0.28625
C          C       0.73542   0.74544   0.28625
C          C       0.26458   0.25456   0.28625
C          C       0.23542   0.75456   0.78625
C          C       0.76458   0.24544   0.78625
C          C       0.23542   0.24544   0.78625
C          C       0.76458   0.75456   0.78625
C          C       0.73320   0.28506   0.26186
C          C       0.26680   0.71494   0.26186
C          C       0.73320   0.71494   0.26186
C          C       0.26680   0.28506   0.26186
C          C       0.23320   0.78506   0.76186
C          C       0.76680   0.21494   0.76186
C          C       0.23320   0.21494   0.76186
C          C       0.76680   0.78506   0.76186
H          H       0.13947   0.09483   0.11859
H          H       0.86053   0.90517   0.11859
H          H       0.13947   0.90517   0.11859
H          H       0.86053   0.09483   0.11859
H          H       0.63947   0.59483   0.61859
H          H       0.36053   0.40517   0.61859
H          H       0.63947   0.40517   0.61859
H          H       0.36053   0.59483   0.61859
H          H       0.60692   0.36136   0.34334
H          H       0.39308   0.63864   0.34334
H          H       0.60692   0.63864   0.34334
H          H       0.39308   0.36136   0.34334
H          H       0.10692   0.86136   0.84334
H          H       0.89308   0.13864   0.84334
H          H       0.10692   0.13864   0.84334
H          H       0.89308   0.86136   0.84334
H          H       0.92257   0.05969   0.92373
H          H       0.07743   0.94031   0.92373
H          H       0.92257   0.94031   0.92373
H          H       0.07743   0.05969   0.92373
H          H       0.42257   0.55969   0.42373
H          H       0.57743   0.44031   0.42373
H          H       0.42257   0.44031   0.42373
H          H       0.57743   0.55969   0.42373
H          H       0.75557   0.58662   0.72884
H          H       0.24443   0.41338   0.72884
H          H       0.75557   0.41338   0.72884
H          H       0.24443   0.58662   0.72884
H          H       0.25557   0.08662   0.22884
H          H       0.74443   0.91338   0.22884
H          H       0.25557   0.91338   0.22884
H          H       0.74443   0.08662   0.22884
H          H       0.13719   0.79991   0.17863
H          H       0.86281   0.20009   0.17863
H          H       0.13719   0.20009   0.17863
H          H       0.86281   0.79991   0.17863
H          H       0.63719   0.29991   0.67863
H          H       0.36281   0.70009   0.67863
H          H       0.63719   0.70009   0.67863
H          H       0.36281   0.29991   0.67863
H          H       0.28606   0.85172   0.25582
H          H       0.71394   0.14828   0.25582
H          H       0.28606   0.14828   0.25582
H          H       0.71394   0.85172   0.25582
H          H       0.78606   0.35172   0.75582
H          H       0.21394   0.64828   0.75582
H          H       0.78606   0.64828   0.75582
H          H       0.21394   0.35172   0.75582
H          H       0.74682   0.30428   0.20267
H          H       0.25318   0.69572   0.20267
H          H       0.74682   0.69572   0.20267
H          H       0.25318   0.30428   0.20267
H          H       0.24682   0.80428   0.70267
H          H       0.75318   0.19572   0.70267
H          H       0.24682   0.19572   0.70267
H          H       0.75318   0.80428   0.70267
H          H       0.72370   0.25790   0.31790
H          H       0.27630   0.74210   0.31790
H          H       0.72370   0.74210   0.31790
H          H       0.27630   0.25790   0.31790
H          H       0.22370   0.75790   0.81790
H          H       0.77630   0.24210   0.81790
H          H       0.22370   0.24210   0.81790
H          H       0.77630   0.75790   0.81790
C          C       0.12692   0.96670   0.87442
C          C       0.87308   0.03330   0.87442
C          C       0.12692   0.03330   0.87442
C          C       0.87308   0.96670   0.87442
C          C       0.62692   0.46670   0.37442
C          C       0.37308   0.53330   0.37442
C          C       0.62692   0.53330   0.37442
C          C       0.37308   0.46670   0.37442
C          C       0.14510   0.93080   0.85844
C          C       0.85490   0.06920   0.85844
C          C       0.14510   0.06920   0.85844
C          C       0.85490   0.93080   0.85844
C          C       0.64510   0.43080   0.35844
C          C       0.35490   0.56920   0.35844
C          C       0.64510   0.56920   0.35844
C          C       0.35490   0.43080   0.35844
N          N       0.16782   0.92644   0.17126
N          N       0.83218   0.07356   0.17126
N          N       0.16782   0.07356   0.17126
N          N       0.83218   0.92644   0.17126
N          N       0.66782   0.42644   0.67126
N          N       0.33218   0.57356   0.67126
N          N       0.66782   0.57356   0.67126
N          N       0.33218   0.42644   0.67126
C          C       0.64816   0.64070   0.67469
C          C       0.35184   0.35930   0.67469
C          C       0.64816   0.35930   0.67469
C          C       0.35184   0.64070   0.67469
C          C       0.14816   0.14070   0.17469
C          C       0.85184   0.85930   0.17469
C          C       0.14816   0.85930   0.17469
C          C       0.85184   0.14070   0.17469
C          C       0.68186   0.60897   0.68747
C          C       0.31814   0.39103   0.68747
C          C       0.68186   0.39103   0.68747
C          C       0.31814   0.60897   0.68747
C          C       0.18186   0.10897   0.18747
C          C       0.81814   0.89103   0.18747
C          C       0.18186   0.89103   0.18747
C          C       0.81814   0.10897   0.18747
C          C       0.90829   0.96709   0.08594
C          C       0.09171   0.03291   0.08594
C          C       0.90829   0.03291   0.08594
C          C       0.09171   0.96709   0.08594
C          C       0.40829   0.46709   0.58594
C          C       0.59171   0.53291   0.58594
C          C       0.40829   0.53291   0.58594
C          C       0.59171   0.46709   0.58594
C          C       0.72976   0.38792   0.27823
C          C       0.27024   0.61208   0.27823
C          C       0.72976   0.61208   0.27823
C          C       0.27024   0.38792   0.27823
C          C       0.22976   0.88792   0.77823
C          C       0.77024   0.11208   0.77823
C          C       0.22976   0.11208   0.77823
C          C       0.77024   0.88792   0.77823
C          C       0.16471   0.17482   0.80545
C          C       0.83529   0.82518   0.80545
C          C       0.16471   0.82518   0.80545
C          C       0.83529   0.17482   0.80545
C          C       0.66471   0.67482   0.30545
C          C       0.33529   0.32518   0.30545
C          C       0.66471   0.32518   0.30545
C          C       0.33529   0.67482   0.30545
C          C       0.24642   0.14635   0.76309
C          C       0.75358   0.85365   0.76309
C          C       0.24642   0.85365   0.76309
C          C       0.75358   0.14635   0.76309
C          C       0.74642   0.64635   0.26309
C          C       0.25358   0.35365   0.26309
C          C       0.74642   0.35365   0.26309
C          C       0.25358   0.64635   0.26309
C          C       0.21469   0.17823   0.77693
C          C       0.78531   0.82177   0.77693
C          C       0.21469   0.82177   0.77693
C          C       0.78531   0.17823   0.77693
C          C       0.71469   0.67823   0.27693
C          C       0.28531   0.32177   0.27693
C          C       0.71469   0.32177   0.27693
C          C       0.28531   0.67823   0.27693
C          C       0.74810   0.71997   0.77216
C          C       0.25190   0.28003   0.77216
C          C       0.74810   0.28003   0.77216
C          C       0.25190   0.71997   0.77216
C          C       0.24810   0.21997   0.27216
C          C       0.75190   0.78003   0.27216
C          C       0.24810   0.78003   0.27216
C          C       0.75190   0.21997   0.27216
C          C       0.73542   0.74544   0.70893
C          C       0.26458   0.25456   0.70893
C          C       0.73542   0.25456   0.70893
C          C       0.26458   0.74544   0.70893
C          C       0.23542   0.24544   0.20893
C          C       0.76458   0.75456   0.20893
C          C       0.23542   0.75456   0.20893
C          C       0.76458   0.24544   0.20893
C          C       0.73320   0.71494   0.73332
C          C       0.26680   0.28506   0.73332
C          C       0.73320   0.28506   0.73332
C          C       0.26680   0.71494   0.73332
C          C       0.23320   0.21494   0.23332
C          C       0.76680   0.78506   0.23332
C          C       0.23320   0.78506   0.23332
C          C       0.76680   0.21494   0.23332
H          H       0.13947   0.90517   0.87659
H          H       0.86053   0.09483   0.87659
H          H       0.13947   0.09483   0.87659
H          H       0.86053   0.90517   0.87659
H          H       0.63947   0.40517   0.37659
H          H       0.36053   0.59483   0.37659
H          H       0.63947   0.59483   0.37659
H          H       0.36053   0.40517   0.37659
H          H       0.60692   0.63864   0.65184
H          H       0.39308   0.36136   0.65184
H          H       0.60692   0.36136   0.65184
H          H       0.39308   0.63864   0.65184
H          H       0.10692   0.13864   0.15184
H          H       0.89308   0.86136   0.15184
H          H       0.10692   0.86136   0.15184
H          H       0.89308   0.13864   0.15184
H          H       0.92257   0.94031   0.07145
H          H       0.07743   0.05969   0.07145
H          H       0.92257   0.05969   0.07145
H          H       0.07743   0.94031   0.07145
H          H       0.42257   0.44031   0.57145
H          H       0.57743   0.55969   0.57145
H          H       0.42257   0.55969   0.57145
H          H       0.57743   0.44031   0.57145
H          H       0.75557   0.41338   0.26634
H          H       0.24443   0.58662   0.26634
H          H       0.75557   0.58662   0.26634
H          H       0.24443   0.41338   0.26634
H          H       0.25557   0.91338   0.76634
H          H       0.74443   0.08662   0.76634
H          H       0.25557   0.08662   0.76634
H          H       0.74443   0.91338   0.76634
H          H       0.13719   0.20009   0.81655
H          H       0.86281   0.79991   0.81655
H          H       0.13719   0.79991   0.81655
H          H       0.86281   0.20009   0.81655
H          H       0.63719   0.70009   0.31655
H          H       0.36281   0.29991   0.31655
H          H       0.63719   0.29991   0.31655
H          H       0.36281   0.70009   0.31655
H          H       0.28606   0.14828   0.73936
H          H       0.71394   0.85172   0.73936
H          H       0.28606   0.85172   0.73936
H          H       0.71394   0.14828   0.73936
H          H       0.78606   0.64828   0.23936
H          H       0.21394   0.35172   0.23936
H          H       0.78606   0.35172   0.23936
H          H       0.21394   0.64828   0.23936
H          H       0.74682   0.69572   0.79251
H          H       0.25318   0.30428   0.79251
H          H       0.74682   0.30428   0.79251
H          H       0.25318   0.69572   0.79251
H          H       0.24682   0.19572   0.29251
H          H       0.75318   0.80428   0.29251
H          H       0.24682   0.80428   0.29251
H          H       0.75318   0.19572   0.29251
H          H       0.72370   0.74210   0.67728
H          H       0.27630   0.25790   0.67728
H          H       0.72370   0.25790   0.67728
H          H       0.27630   0.74210   0.67728
H          H       0.22370   0.24210   0.17728
H          H       0.77630   0.75790   0.17728
H          H       0.22370   0.75790   0.17728
H          H       0.77630   0.24210   0.17728
H          H       0.16845   0.02490   0.98260
H          H       0.83155   0.97510   0.98260
H          H       0.16845   0.97510   0.98260
H          H       0.83155   0.02490   0.98260
H          H       0.66845   0.52490   0.48260
H          H       0.33155   0.47510   0.48260
H          H       0.66845   0.47510   0.48260
H          H       0.33155   0.52490   0.48260
C          C       0.03603   0.00000   0.03230
C          C       0.96397   0.00000   0.03230
C          C       0.53603   0.50000   0.53230
C          C       0.46397   0.50000   0.53230
C          C       0.96397   0.00000   0.96288
C          C       0.03603   0.00000   0.96288
C          C       0.46397   0.50000   0.46288
C          C       0.53603   0.50000   0.46288
C          C       0.07202   0.00000   0.99759
C          C       0.92798   0.00000   0.99759
C          C       0.57202   0.50000   0.49759
C          C       0.42798   0.50000   0.49759
C          C       0.14873   0.00000   0.99750
C          C       0.85127   0.00000   0.99750
C          C       0.64873   0.50000   0.49750
C          C       0.35127   0.50000   0.49750
H          H       0.16754   0.00000   0.02766
H          H       0.83246   0.00000   0.02766
H          H       0.66754   0.50000   0.52766
H          H       0.33246   0.50000   0.52766
C          C       0.64434   0.50000   0.35676
C          C       0.35566   0.50000   0.35676
C          C       0.14434   0.00000   0.85676
C          C       0.85566   0.00000   0.85676
C          C       0.57383   0.50000   0.42647
C          C       0.42617   0.50000   0.42647
C          C       0.07383   0.00000   0.92647
C          C       0.92617   0.00000   0.92647
H          H       0.67243   0.50000   0.32828
H          H       0.32757   0.50000   0.32828
H          H       0.17243   0.00000   0.82828
H          H       0.82757   0.00000   0.82828
C          C       0.35566   0.50000   0.63842
C          C       0.64434   0.50000   0.63842
C          C       0.85566   0.00000   0.13842
C          C       0.14434   0.00000   0.13842
C          C       0.42617   0.50000   0.56871
C          C       0.57383   0.50000   0.56871
C          C       0.92617   0.00000   0.06871
C          C       0.07383   0.00000   0.06871
C          C       0.32757   0.50000   0.66690
C          C       0.67243   0.50000   0.66690
C          C       0.82757   0.00000   0.16690
C          C       0.17243   0.00000   0.16690
