data_crystal

_cell_length_a    14.30500
_cell_length_b    19.30390
_cell_length_c    33.03850
_cell_angle_alpha 90.00000
_cell_angle_beta  90.00000
_cell_angle_gamma 90.00000

_space_group_name_Hall 'P 1'
_space_group_name_H-M_alt 'P 1'

loop_
_symmetry_equiv_pos_as_xyz
 'x,y,z'

loop_
_atom_site_label
_atom_site_type_symbol
_atom_site_fract_x
_atom_site_fract_y
_atom_site_fract_z
C          C       0.34400   0.56469   0.38264
C          C       0.65600   0.43531   0.38264
C          C       0.34400   0.43531   0.38264
C          C       0.65600   0.56469   0.38264
C          C       0.84400   0.06469   0.88264
C          C       0.15600   0.93531   0.88264
C          C       0.84400   0.93531   0.88264
C          C       0.15600   0.06469   0.88264
C          C       0.33020   0.62894   0.36166
C          C       0.66980   0.37106   0.36166
C          C       0.33020   0.37106   0.36166
C          C       0.66980   0.62894   0.36166
C          C       0.83020   0.12894   0.86166
C          C       0.16980   0.87106   0.86166
C          C       0.83020   0.87106   0.86166
C          C       0.16980   0.12894   0.86166
N          N       0.28277   0.63740   0.71821
N          N       0.71723   0.36260   0.71821
N          N       0.28277   0.36260   0.71821
N          N       0.71723   0.63740   0.71821
N          N       0.78277   0.13740   0.21821
N          N       0.21723   0.86260   0.21821
N          N       0.78277   0.86260   0.21821
N          N       0.21723   0.13740   0.21821
C          C       0.81893   0.74354   0.24234
C          C       0.18107   0.25646   0.24234
C          C       0.81893   0.25646   0.24234
C          C       0.18107   0.74354   0.24234
C          C       0.31893   0.24354   0.74234
C          C       0.68107   0.75646   0.74234
C          C       0.31893   0.75646   0.74234
C          C       0.68107   0.24354   0.74234
C          C       0.76814   0.80656   0.24337
C          C       0.23186   0.19344   0.24337
C          C       0.76814   0.19344   0.24337
C          C       0.23186   0.80656   0.24337
C          C       0.26814   0.30656   0.74337
C          C       0.73186   0.69344   0.74337
C          C       0.26814   0.69344   0.74337
C          C       0.73186   0.30656   0.74337
C          C       0.61899   0.56255   0.62102
C          C       0.38101   0.43745   0.62102
C          C       0.61899   0.43745   0.62102
C          C       0.38101   0.56255   0.62102
C          C       0.11899   0.06255   0.12102
C          C       0.88101   0.93745   0.12102
C          C       0.11899   0.93745   0.12102
C          C       0.88101   0.06255   0.12102
C          C       0.69965   0.18870   0.77002
C          C       0.30035   0.81130   0.77002
C          C       0.69965   0.81130   0.77002
C          C       0.30035   0.18870   0.77002
C          C       0.19965   0.68870   0.27002
C          C       0.80035   0.31130   0.27002
C          C       0.19965   0.31130   0.27002
C          C       0.80035   0.68870   0.27002
C          C       0.65689   0.56469   0.66116
C          C       0.34311   0.43531   0.66116
C          C       0.65689   0.43531   0.66116
C          C       0.34311   0.56469   0.66116
C          C       0.15689   0.06469   0.16116
C          C       0.84311   0.93531   0.16116
C          C       0.15689   0.93531   0.16116
C          C       0.84311   0.06469   0.16116
C          C       0.67086   0.62894   0.68212
C          C       0.32914   0.37106   0.68212
C          C       0.67086   0.37106   0.68212
C          C       0.32914   0.62894   0.68212
C          C       0.17086   0.12894   0.18212
C          C       0.82914   0.87106   0.18212
C          C       0.17086   0.87106   0.18212
C          C       0.82914   0.12894   0.18212
N          N       0.71597   0.63739   0.32551
N          N       0.28403   0.36261   0.32551
N          N       0.71597   0.36261   0.32551
N          N       0.28403   0.63739   0.32551
N          N       0.21597   0.13739   0.82551
N          N       0.78403   0.86261   0.82551
N          N       0.21597   0.86261   0.82551
N          N       0.78403   0.13739   0.82551
C          C       0.17968   0.74358   0.80136
C          C       0.82032   0.25642   0.80136
C          C       0.17968   0.25642   0.80136
C          C       0.82032   0.74358   0.80136
C          C       0.67968   0.24358   0.30136
C          C       0.32032   0.75642   0.30136
C          C       0.67968   0.75642   0.30136
C          C       0.32032   0.24358   0.30136
C          C       0.23051   0.80658   0.80034
C          C       0.76949   0.19342   0.80034
C          C       0.23051   0.19342   0.80034
C          C       0.76949   0.80658   0.80034
C          C       0.73051   0.30658   0.30034
C          C       0.26949   0.69342   0.30034
C          C       0.73051   0.69342   0.30034
C          C       0.26949   0.30658   0.30034
C          C       0.38145   0.56256   0.42285
C          C       0.61855   0.43744   0.42285
C          C       0.38145   0.43744   0.42285
C          C       0.61855   0.56256   0.42285
C          C       0.88145   0.06256   0.92285
C          C       0.11855   0.93744   0.92285
C          C       0.88145   0.93744   0.92285
C          C       0.11855   0.06256   0.92285
C          C       0.30173   0.18874   0.27367
C          C       0.69827   0.81126   0.27367
C          C       0.30173   0.81126   0.27367
C          C       0.69827   0.18874   0.27367
C          C       0.80173   0.68874   0.77367
C          C       0.19827   0.31126   0.77367
C          C       0.80173   0.31126   0.77367
C          C       0.19827   0.68874   0.77367
H          H       0.35735   0.67254   0.37473
H          H       0.64265   0.32746   0.37473
H          H       0.35735   0.32746   0.37473
H          H       0.64265   0.67254   0.37473
H          H       0.85735   0.17254   0.87473
H          H       0.14265   0.82746   0.87473
H          H       0.85735   0.82746   0.87473
H          H       0.14265   0.17254   0.87473
H          H       0.87095   0.73741   0.22150
H          H       0.12905   0.26259   0.22150
H          H       0.87095   0.26259   0.22150
H          H       0.12905   0.73741   0.22150
H          H       0.37095   0.23741   0.72150
H          H       0.62905   0.76259   0.72150
H          H       0.37095   0.76259   0.72150
H          H       0.62905   0.23741   0.72150
H          H       0.60412   0.60837   0.60684
H          H       0.39588   0.39163   0.60684
H          H       0.60412   0.39163   0.60684
H          H       0.39588   0.60837   0.60684
H          H       0.10412   0.10837   0.10684
H          H       0.89588   0.89163   0.10684
H          H       0.10412   0.89163   0.10684
H          H       0.89588   0.10837   0.10684
H          H       0.66089   0.14431   0.76818
H          H       0.33911   0.85569   0.76818
H          H       0.66089   0.85569   0.76818
H          H       0.33911   0.14431   0.76818
H          H       0.16089   0.64431   0.26818
H          H       0.83911   0.35569   0.26818
H          H       0.16089   0.35569   0.26818
H          H       0.83911   0.64431   0.26818
H          H       0.64364   0.67254   0.66907
H          H       0.35636   0.32746   0.66907
H          H       0.64364   0.32746   0.66907
H          H       0.35636   0.67254   0.66907
H          H       0.14364   0.17254   0.16907
H          H       0.85636   0.82746   0.16907
H          H       0.14364   0.82746   0.16907
H          H       0.85636   0.17254   0.16907
H          H       0.12767   0.73746   0.82220
H          H       0.87233   0.26254   0.82220
H          H       0.12767   0.26254   0.82220
H          H       0.87233   0.73746   0.82220
H          H       0.62767   0.23746   0.32220
H          H       0.37233   0.76254   0.32220
H          H       0.62767   0.76254   0.32220
H          H       0.37233   0.23746   0.32220
H          H       0.39607   0.60838   0.43709
H          H       0.60393   0.39162   0.43709
H          H       0.39607   0.39162   0.43709
H          H       0.60393   0.60838   0.43709
H          H       0.89607   0.10838   0.93709
H          H       0.10393   0.89162   0.93709
H          H       0.89607   0.89162   0.93709
H          H       0.10393   0.10838   0.93709
H          H       0.34051   0.14436   0.27552
H          H       0.65949   0.85564   0.27552
H          H       0.34051   0.85564   0.27552
H          H       0.65949   0.14436   0.27552
H          H       0.84051   0.64436   0.77552
H          H       0.15949   0.35564   0.77552
H          H       0.84051   0.35564   0.77552
H          H       0.15949   0.64436   0.77552
H          H       0.27235   0.54596   0.53928
H          H       0.72765   0.45404   0.53928
H          H       0.27235   0.45404   0.53928
H          H       0.72765   0.54596   0.53928
H          H       0.77235   0.04596   0.03928
H          H       0.22765   0.95404   0.03928
H          H       0.77235   0.95404   0.03928
H          H       0.22765   0.04596   0.03928
C          C       0.44961   0.50000   0.48315
C          C       0.55039   0.50000   0.48315
C          C       0.94961   0.00000   0.98315
C          C       0.05039   0.00000   0.98315
C          C       0.32365   0.50000   0.67988
C          C       0.67635   0.50000   0.67988
C          C       0.82365   0.00000   0.17988
C          C       0.17635   0.00000   0.17988
C          C       0.40175   0.50000   0.59975
C          C       0.59825   0.50000   0.59975
C          C       0.90175   0.00000   0.09975
C          C       0.09825   0.00000   0.09975
C          C       0.55031   0.50000   0.56080
C          C       0.44969   0.50000   0.56080
C          C       0.05031   0.00000   0.06080
C          C       0.94969   0.00000   0.06080
C          C       0.67521   0.50000   0.36387
C          C       0.32479   0.50000   0.36387
C          C       0.17521   0.00000   0.86387
C          C       0.82479   0.00000   0.86387
C          C       0.59792   0.50000   0.44413
C          C       0.40208   0.50000   0.44413
C          C       0.09792   0.00000   0.94413
C          C       0.90208   0.00000   0.94413
C          C       0.40158   0.50000   0.52200
C          C       0.59842   0.50000   0.52200
C          C       0.90158   0.00000   0.02200
C          C       0.09842   0.00000   0.02200
C          C       0.29710   0.50000   0.52329
C          C       0.70290   0.50000   0.52329
C          C       0.79710   0.00000   0.02329
C          C       0.20290   0.00000   0.02329
H          H       0.29624   0.50000   0.70850
H          H       0.70376   0.50000   0.70850
H          H       0.79624   0.00000   0.20850
H          H       0.20376   0.00000   0.20850
H          H       0.70225   0.50000   0.33519
H          H       0.29775   0.50000   0.33519
H          H       0.20225   0.00000   0.83519
H          H       0.79775   0.00000   0.83519
H          H       0.26397   0.50000   0.49361
H          H       0.73603   0.50000   0.49361
H          H       0.76397   0.00000   0.99361
H          H       0.23603   0.00000   0.99361
