data_crystal

_cell_length_a    17.55570
_cell_length_b    29.16090
_cell_length_c    31.44250
_cell_angle_alpha 90.00000
_cell_angle_beta  90.00000
_cell_angle_gamma 90.00000

_space_group_name_Hall 'P 1'
_space_group_name_H-M_alt 'P 1'

loop_
_symmetry_equiv_pos_as_xyz
 'x,y,z'

loop_
_atom_site_label
_atom_site_type_symbol
_atom_site_fract_x
_atom_site_fract_y
_atom_site_fract_z
C          C       0.13751   0.04229   0.13906
C          C       0.86249   0.95771   0.13906
C          C       0.13751   0.95771   0.13906
C          C       0.86249   0.04229   0.13906
C          C       0.63751   0.54229   0.63906
C          C       0.36249   0.45771   0.63906
C          C       0.63751   0.45771   0.63906
C          C       0.36249   0.54229   0.63906
C          C       0.15042   0.08584   0.15712
C          C       0.84958   0.91416   0.15712
C          C       0.15042   0.91416   0.15712
C          C       0.84958   0.08584   0.15712
C          C       0.65042   0.58584   0.65712
C          C       0.34958   0.41416   0.65712
C          C       0.65042   0.41416   0.65712
C          C       0.34958   0.58584   0.65712
N          N       0.19154   0.09411   0.80978
N          N       0.80846   0.90589   0.80978
N          N       0.19154   0.90589   0.80978
N          N       0.80846   0.09411   0.80978
N          N       0.69154   0.59411   0.30978
N          N       0.30846   0.40589   0.30978
N          N       0.69154   0.40589   0.30978
N          N       0.30846   0.59411   0.30978
C          C       0.65450   0.32593   0.29923
C          C       0.34550   0.67407   0.29923
C          C       0.65450   0.67407   0.29923
C          C       0.34550   0.32593   0.29923
C          C       0.15450   0.82593   0.79923
C          C       0.84550   0.17407   0.79923
C          C       0.15450   0.17407   0.79923
C          C       0.84550   0.82593   0.79923
C          C       0.70350   0.36364   0.29267
C          C       0.29650   0.63636   0.29267
C          C       0.70350   0.63636   0.29267
C          C       0.29650   0.36364   0.29267
C          C       0.20350   0.86364   0.79267
C          C       0.79650   0.13636   0.79267
C          C       0.20350   0.13636   0.79267
C          C       0.79650   0.86364   0.79267
C          C       0.90036   0.04151   0.90364
C          C       0.09964   0.95849   0.90364
C          C       0.90036   0.95849   0.90364
C          C       0.09964   0.04151   0.90364
C          C       0.40036   0.54151   0.40364
C          C       0.59964   0.45849   0.40364
C          C       0.40036   0.45849   0.40364
C          C       0.59964   0.54151   0.40364
C          C       0.76880   0.64432   0.73642
C          C       0.23120   0.35568   0.73642
C          C       0.76880   0.35568   0.73642
C          C       0.23120   0.64432   0.73642
C          C       0.26880   0.14432   0.23642
C          C       0.73120   0.85568   0.23642
C          C       0.26880   0.85568   0.23642
C          C       0.73120   0.14432   0.23642
C          C       0.17759   0.78017   0.21738
C          C       0.82241   0.21983   0.21738
C          C       0.17759   0.21983   0.21738
C          C       0.82241   0.78017   0.21738
C          C       0.67759   0.28017   0.71738
C          C       0.32241   0.71983   0.71738
C          C       0.67759   0.71983   0.71738
C          C       0.32241   0.28017   0.71738
C          C       0.28529   0.81206   0.25371
C          C       0.71471   0.18794   0.25371
C          C       0.28529   0.18794   0.25371
C          C       0.71471   0.81206   0.25371
C          C       0.78529   0.31206   0.75371
C          C       0.21471   0.68794   0.75371
C          C       0.78529   0.68794   0.75371
C          C       0.21471   0.31206   0.75371
C          C       0.24181   0.77199   0.24391
C          C       0.75819   0.22801   0.24391
C          C       0.24181   0.22801   0.24391
C          C       0.75819   0.77199   0.24391
C          C       0.74181   0.27199   0.74391
C          C       0.25819   0.72801   0.74391
C          C       0.74181   0.72801   0.74391
C          C       0.25819   0.27199   0.74391
C          C       0.63855   0.45762   0.36423
C          C       0.36145   0.54238   0.36423
C          C       0.63855   0.54238   0.36423
C          C       0.36145   0.45762   0.36423
C          C       0.13855   0.95762   0.86423
C          C       0.86145   0.04238   0.86423
C          C       0.13855   0.04238   0.86423
C          C       0.86145   0.95762   0.86423
C          C       0.65514   0.41412   0.34698
C          C       0.34486   0.58588   0.34698
C          C       0.65514   0.58588   0.34698
C          C       0.34486   0.41412   0.34698
C          C       0.15514   0.91412   0.84698
C          C       0.84486   0.08588   0.84698
C          C       0.15514   0.08588   0.84698
C          C       0.84486   0.91412   0.84698
N          N       0.69765   0.40394   0.68990
N          N       0.30235   0.59606   0.68990
N          N       0.69765   0.59606   0.68990
N          N       0.30235   0.40394   0.68990
N          N       0.19765   0.90394   0.18990
N          N       0.80235   0.09606   0.18990
N          N       0.19765   0.09606   0.18990
N          N       0.80235   0.90394   0.18990
C          C       0.16067   0.17651   0.20034
C          C       0.83933   0.82349   0.20034
C          C       0.16067   0.82349   0.20034
C          C       0.83933   0.17651   0.20034
C          C       0.66067   0.67651   0.70034
C          C       0.33933   0.32349   0.70034
C          C       0.66067   0.32349   0.70034
C          C       0.33933   0.67651   0.70034
C          C       0.20754   0.13806   0.20824
C          C       0.79246   0.86194   0.20824
C          C       0.20754   0.86194   0.20824
C          C       0.79246   0.13806   0.20824
C          C       0.70754   0.63806   0.70824
C          C       0.29246   0.36194   0.70824
C          C       0.70754   0.36194   0.70824
C          C       0.29246   0.63806   0.70824
C          C       0.40065   0.45857   0.59938
C          C       0.59935   0.54143   0.59938
C          C       0.40065   0.54143   0.59938
C          C       0.59935   0.45857   0.59938
C          C       0.90065   0.95857   0.09938
C          C       0.09935   0.04143   0.09938
C          C       0.90065   0.04143   0.09938
C          C       0.09935   0.95857   0.09938
C          C       0.26841   0.85659   0.76750
C          C       0.73159   0.14341   0.76750
C          C       0.26841   0.14341   0.76750
C          C       0.73159   0.85659   0.76750
C          C       0.76841   0.35659   0.26750
C          C       0.23159   0.64341   0.26750
C          C       0.76841   0.64341   0.26750
C          C       0.23159   0.35659   0.26750
C          C       0.67219   0.71779   0.28305
C          C       0.32781   0.28221   0.28305
C          C       0.67219   0.28221   0.28305
C          C       0.32781   0.71779   0.28305
C          C       0.17219   0.21779   0.78305
C          C       0.82781   0.78221   0.78305
C          C       0.17219   0.78221   0.78305
C          C       0.82781   0.21779   0.78305
C          C       0.78609   0.68738   0.25163
C          C       0.21391   0.31262   0.25163
C          C       0.78609   0.31262   0.25163
C          C       0.21391   0.68738   0.25163
C          C       0.28609   0.18738   0.75163
C          C       0.71391   0.81262   0.75163
C          C       0.28609   0.81262   0.75163
C          C       0.71391   0.18738   0.75163
C          C       0.73960   0.72679   0.25929
C          C       0.26040   0.27321   0.25929
C          C       0.73960   0.27321   0.25929
C          C       0.26040   0.72679   0.25929
C          C       0.23960   0.22679   0.75929
C          C       0.76040   0.77321   0.75929
C          C       0.23960   0.77321   0.75929
C          C       0.76040   0.22679   0.75929
H          H       0.12219   0.11246   0.14309
H          H       0.87781   0.88754   0.14309
H          H       0.12219   0.88754   0.14309
H          H       0.87781   0.11246   0.14309
H          H       0.62219   0.61246   0.64309
H          H       0.37781   0.38754   0.64309
H          H       0.62219   0.38754   0.64309
H          H       0.37781   0.61246   0.64309
H          H       0.60496   0.32999   0.31584
H          H       0.39504   0.67001   0.31584
H          H       0.60496   0.67001   0.31584
H          H       0.39504   0.32999   0.31584
H          H       0.10496   0.82999   0.81584
H          H       0.89504   0.17001   0.81584
H          H       0.10496   0.17001   0.81584
H          H       0.89504   0.82999   0.81584
H          H       0.91512   0.07149   0.91857
H          H       0.08488   0.92851   0.91857
H          H       0.91512   0.92851   0.91857
H          H       0.08488   0.07149   0.91857
H          H       0.41512   0.57149   0.41857
H          H       0.58488   0.42851   0.41857
H          H       0.41512   0.42851   0.41857
H          H       0.58488   0.57149   0.41857
H          H       0.80274   0.61696   0.74392
H          H       0.19726   0.38304   0.74392
H          H       0.80274   0.38304   0.74392
H          H       0.19726   0.61696   0.74392
H          H       0.30274   0.11696   0.24392
H          H       0.69726   0.88304   0.24392
H          H       0.30274   0.88304   0.24392
H          H       0.69726   0.11696   0.24392
H          H       0.14060   0.75485   0.20921
H          H       0.85940   0.24515   0.20921
H          H       0.14060   0.24515   0.20921
H          H       0.85940   0.75485   0.20921
H          H       0.64060   0.25485   0.70921
H          H       0.35940   0.74515   0.70921
H          H       0.64060   0.74515   0.70921
H          H       0.35940   0.25485   0.70921
H          H       0.33082   0.81088   0.27370
H          H       0.66918   0.18912   0.27370
H          H       0.33082   0.18912   0.27370
H          H       0.66918   0.81088   0.27370
H          H       0.83082   0.31088   0.77370
H          H       0.16918   0.68912   0.77370
H          H       0.83082   0.68912   0.77370
H          H       0.16918   0.31088   0.77370
H          H       0.63898   0.38612   0.36450
H          H       0.36102   0.61388   0.36450
H          H       0.63898   0.61388   0.36450
H          H       0.36102   0.38612   0.36450
H          H       0.13898   0.88612   0.86450
H          H       0.86102   0.11388   0.86450
H          H       0.13898   0.11388   0.86450
H          H       0.86102   0.88612   0.86450
H          H       0.11289   0.17379   0.18213
H          H       0.88711   0.82621   0.18213
H          H       0.11289   0.82621   0.18213
H          H       0.88711   0.17379   0.18213
H          H       0.61289   0.67379   0.68213
H          H       0.38711   0.32621   0.68213
H          H       0.61289   0.32621   0.68213
H          H       0.38711   0.67379   0.68213
H          H       0.41543   0.42859   0.58443
H          H       0.58457   0.57141   0.58443
H          H       0.41543   0.57141   0.58443
H          H       0.58457   0.42859   0.58443
H          H       0.91543   0.92859   0.08443
H          H       0.08457   0.07141   0.08443
H          H       0.91543   0.07141   0.08443
H          H       0.08457   0.92859   0.08443
H          H       0.30393   0.88356   0.76120
H          H       0.69607   0.11644   0.76120
H          H       0.30393   0.11644   0.76120
H          H       0.69607   0.88356   0.76120
H          H       0.80393   0.38356   0.26120
H          H       0.19607   0.61644   0.26120
H          H       0.80393   0.61644   0.26120
H          H       0.19607   0.38356   0.26120
H          H       0.63330   0.74273   0.28937
H          H       0.36670   0.25727   0.28937
H          H       0.63330   0.25727   0.28937
H          H       0.36670   0.74273   0.28937
H          H       0.13330   0.24273   0.78937
H          H       0.86670   0.75727   0.78937
H          H       0.13330   0.75727   0.78937
H          H       0.86670   0.24273   0.78937
H          H       0.83493   0.68914   0.23435
H          H       0.16507   0.31086   0.23435
H          H       0.83493   0.31086   0.23435
H          H       0.16507   0.68914   0.23435
H          H       0.33493   0.18914   0.73435
H          H       0.66507   0.81086   0.73435
H          H       0.33493   0.81086   0.73435
H          H       0.66507   0.18914   0.73435
H          H       0.18811   0.96959   0.01939
H          H       0.81189   0.03041   0.01939
H          H       0.18811   0.03041   0.01939
H          H       0.81189   0.96959   0.01939
H          H       0.68811   0.46959   0.51939
H          H       0.31189   0.53041   0.51939
H          H       0.68811   0.53041   0.51939
H          H       0.31189   0.46959   0.51939
C          C       0.04058   0.00000   0.04026
C          C       0.95942   0.00000   0.04026
C          C       0.54058   0.50000   0.54026
C          C       0.45942   0.50000   0.54026
C          C       0.15781   0.00000   0.84472
C          C       0.84219   0.00000   0.84472
C          C       0.65781   0.50000   0.34472
C          C       0.34219   0.50000   0.34472
C          C       0.07995   0.00000   0.92337
C          C       0.92005   0.00000   0.92337
C          C       0.57995   0.50000   0.42337
C          C       0.42005   0.50000   0.42337
H          H       0.18588   0.00000   0.81617
H          H       0.81412   0.00000   0.81617
H          H       0.68588   0.50000   0.31617
H          H       0.31412   0.50000   0.31617
C          C       0.95939   0.00000   0.96253
C          C       0.04061   0.00000   0.96253
C          C       0.45939   0.50000   0.46253
C          C       0.54061   0.50000   0.46253
C          C       0.84214   0.00000   0.15834
C          C       0.15786   0.00000   0.15834
C          C       0.34214   0.50000   0.65834
C          C       0.65786   0.50000   0.65834
C          C       0.91985   0.00000   0.07942
C          C       0.08015   0.00000   0.07942
C          C       0.41985   0.50000   0.57942
C          C       0.58015   0.50000   0.57942
H          H       0.81400   0.00000   0.18686
H          H       0.18600   0.00000   0.18686
H          H       0.31400   0.50000   0.68686
H          H       0.68600   0.50000   0.68686
C          C       0.08214   0.00000   0.00140
C          C       0.91786   0.00000   0.00140
C          C       0.58214   0.50000   0.50140
C          C       0.41786   0.50000   0.50140
C          C       0.16783   0.00000   0.00264
C          C       0.83217   0.00000   0.00264
C          C       0.66783   0.50000   0.50264
C          C       0.33217   0.50000   0.50264
H          H       0.19522   0.00000   0.97157
H          H       0.80478   0.00000   0.97157
H          H       0.69522   0.50000   0.47157
H          H       0.30478   0.50000   0.47157
