data_crystal

_cell_length_a    38.97140
_cell_length_b    38.97140
_cell_length_c    6.99460
_cell_angle_alpha 90.00000
_cell_angle_beta  90.00000
_cell_angle_gamma 120.00000

_space_group_name_Hall 'P 1'
_space_group_name_H-M_alt 'P 1'

loop_
_symmetry_equiv_pos_as_xyz
 'x,y,z'

loop_
_atom_site_label
_atom_site_type_symbol
_atom_site_fract_x
_atom_site_fract_y
_atom_site_fract_z
C          C       0.50575   0.48649   0.00000
C          C       0.51351   0.01926   0.00000
C          C       0.98074   0.49425   0.00000
C          C       0.49425   0.51351   0.00000
C          C       0.48649   0.98074   0.00000
C          C       0.01926   0.50575   0.00000
C          C       0.48175   0.45002   0.00000
C          C       0.54998   0.03173   0.00000
C          C       0.96827   0.51825   0.00000
C          C       0.51825   0.54998   0.00000
C          C       0.45002   0.96827   0.00000
C          C       0.03173   0.48175   0.00000
C          C       0.49915   0.43058   0.00000
C          C       0.56942   0.06857   0.00000
C          C       0.93143   0.50085   0.00000
C          C       0.50085   0.56942   0.00000
C          C       0.43058   0.93143   0.00000
C          C       0.06857   0.49915   0.00000
C          C       0.53592   0.45289   0.00000
C          C       0.54711   0.08303   0.00000
C          C       0.91697   0.46408   0.00000
C          C       0.46408   0.54711   0.00000
C          C       0.45289   0.91697   0.00000
C          C       0.08303   0.53592   0.00000
C          C       0.56149   0.43981   0.00000
C          C       0.56019   0.12168   0.00000
C          C       0.87832   0.43851   0.00000
C          C       0.43851   0.56019   0.00000
C          C       0.43981   0.87832   0.00000
C          C       0.12168   0.56149   0.00000
N          N       0.55060   0.40574   0.00000
N          N       0.59426   0.14486   0.00000
N          N       0.85514   0.44940   0.00000
N          N       0.44940   0.59426   0.00000
N          N       0.40574   0.85514   0.00000
N          N       0.14486   0.55060   0.00000
C          C       0.57464   0.39178   0.00000
C          C       0.60822   0.18286   0.00000
C          C       0.81714   0.42536   0.00000
C          C       0.42536   0.60822   0.00000
C          C       0.39178   0.81714   0.00000
C          C       0.18286   0.57464   0.00000
C          C       0.56038   0.35457   0.00000
C          C       0.64543   0.20581   0.00000
C          C       0.79419   0.43962   0.00000
C          C       0.43962   0.64543   0.00000
C          C       0.35457   0.79419   0.00000
C          C       0.20581   0.56038   0.00000
C          C       0.58314   0.34011   0.00000
C          C       0.65989   0.24303   0.00000
C          C       0.75697   0.41686   0.00000
C          C       0.41686   0.65989   0.00000
C          C       0.34011   0.75697   0.00000
C          C       0.24303   0.58314   0.00000
C          C       0.62052   0.36272   0.00000
C          C       0.63728   0.25780   0.00000
C          C       0.74220   0.37948   0.00000
C          C       0.37948   0.63728   0.00000
C          C       0.36272   0.74220   0.00000
C          C       0.25780   0.62052   0.00000
C          C       0.63482   0.40003   0.00000
C          C       0.59997   0.23479   0.00000
C          C       0.76521   0.36518   0.00000
C          C       0.36518   0.59997   0.00000
C          C       0.40003   0.76521   0.00000
C          C       0.23479   0.63482   0.00000
C          C       0.61208   0.41451   0.00000
C          C       0.58549   0.19757   0.00000
C          C       0.80243   0.38792   0.00000
C          C       0.38792   0.58549   0.00000
C          C       0.41451   0.80243   0.00000
C          C       0.19757   0.61208   0.00000
C          C       0.64450   0.34745   0.00000
C          C       0.65255   0.29705   0.00000
C          C       0.70295   0.35550   0.00000
C          C       0.35550   0.65255   0.00000
C          C       0.34745   0.70295   0.00000
C          C       0.29705   0.64450   0.00000
N          N       0.68071   0.36943   0.00000
N          N       0.63057   0.31128   0.00000
N          N       0.68872   0.31929   0.00000
N          N       0.31929   0.63057   0.00000
N          N       0.36943   0.68872   0.00000
N          N       0.31128   0.68071   0.00000
S          S       0.45002   0.50233   0.00000
S          S       0.49767   0.94769   0.00000
S          S       0.05231   0.54998   0.00000
S          S       0.54998   0.49767   0.00000
S          S       0.50233   0.05231   0.00000
S          S       0.94769   0.45002   0.00000
H          H       0.45114   0.43556   0.00000
H          H       0.56444   0.01558   0.00000
H          H       0.98442   0.54886   0.00000
H          H       0.54886   0.56444   0.00000
H          H       0.43556   0.98442   0.00000
H          H       0.01558   0.45114   0.00000
H          H       0.48300   0.39998   0.00000
H          H       0.60002   0.08302   0.00000
H          H       0.91698   0.51700   0.00000
H          H       0.51700   0.60002   0.00000
H          H       0.39998   0.91698   0.00000
H          H       0.08302   0.48300   0.00000
H          H       0.59159   0.45972   0.00000
H          H       0.54028   0.13187   0.00000
H          H       0.86813   0.40841   0.00000
H          H       0.40841   0.54028   0.00000
H          H       0.45972   0.86813   0.00000
H          H       0.13187   0.59159   0.00000
H          H       0.53001   0.33600   0.00000
H          H       0.66400   0.19401   0.00000
H          H       0.80599   0.46999   0.00000
H          H       0.46999   0.66400   0.00000
H          H       0.33600   0.80599   0.00000
H          H       0.19401   0.53001   0.00000
H          H       0.57134   0.30975   0.00000
H          H       0.69025   0.26159   0.00000
H          H       0.73841   0.42866   0.00000
H          H       0.42866   0.69025   0.00000
H          H       0.30975   0.73841   0.00000
H          H       0.26159   0.57134   0.00000
H          H       0.66516   0.41875   0.00000
H          H       0.58125   0.24641   0.00000
H          H       0.75359   0.33484   0.00000
H          H       0.33484   0.58125   0.00000
H          H       0.41875   0.75359   0.00000
H          H       0.24641   0.66516   0.00000
H          H       0.62389   0.44488   0.00000
H          H       0.55512   0.17901   0.00000
H          H       0.82099   0.37611   0.00000
H          H       0.37611   0.55512   0.00000
H          H       0.44488   0.82099   0.00000
H          H       0.17901   0.62389   0.00000
C          C       0.50575   0.48649   0.50000
C          C       0.51351   0.01926   0.50000
C          C       0.98074   0.49425   0.50000
C          C       0.49425   0.51351   0.50000
C          C       0.48649   0.98074   0.50000
C          C       0.01926   0.50575   0.50000
C          C       0.48175   0.45002   0.50000
C          C       0.54998   0.03173   0.50000
C          C       0.96827   0.51825   0.50000
C          C       0.51825   0.54998   0.50000
C          C       0.45002   0.96827   0.50000
C          C       0.03173   0.48175   0.50000
C          C       0.49915   0.43058   0.50000
C          C       0.56942   0.06857   0.50000
C          C       0.93143   0.50085   0.50000
C          C       0.50085   0.56942   0.50000
C          C       0.43058   0.93143   0.50000
C          C       0.06857   0.49915   0.50000
C          C       0.53592   0.45289   0.50000
C          C       0.54711   0.08303   0.50000
C          C       0.91697   0.46408   0.50000
C          C       0.46408   0.54711   0.50000
C          C       0.45289   0.91697   0.50000
C          C       0.08303   0.53592   0.50000
C          C       0.56149   0.43981   0.50000
C          C       0.56019   0.12168   0.50000
C          C       0.87832   0.43851   0.50000
C          C       0.43851   0.56019   0.50000
C          C       0.43981   0.87832   0.50000
C          C       0.12168   0.56149   0.50000
N          N       0.55060   0.40574   0.50000
N          N       0.59426   0.14486   0.50000
N          N       0.85514   0.44940   0.50000
N          N       0.44940   0.59426   0.50000
N          N       0.40574   0.85514   0.50000
N          N       0.14486   0.55060   0.50000
C          C       0.57464   0.39178   0.50000
C          C       0.60822   0.18286   0.50000
C          C       0.81714   0.42536   0.50000
C          C       0.42536   0.60822   0.50000
C          C       0.39178   0.81714   0.50000
C          C       0.18286   0.57464   0.50000
C          C       0.56038   0.35457   0.50000
C          C       0.64543   0.20581   0.50000
C          C       0.79419   0.43962   0.50000
C          C       0.43962   0.64543   0.50000
C          C       0.35457   0.79419   0.50000
C          C       0.20581   0.56038   0.50000
C          C       0.58314   0.34011   0.50000
C          C       0.65989   0.24303   0.50000
C          C       0.75697   0.41686   0.50000
C          C       0.41686   0.65989   0.50000
C          C       0.34011   0.75697   0.50000
C          C       0.24303   0.58314   0.50000
C          C       0.62052   0.36272   0.50000
C          C       0.63728   0.25780   0.50000
C          C       0.74220   0.37948   0.50000
C          C       0.37948   0.63728   0.50000
C          C       0.36272   0.74220   0.50000
C          C       0.25780   0.62052   0.50000
C          C       0.63482   0.40003   0.50000
C          C       0.59997   0.23479   0.50000
C          C       0.76521   0.36518   0.50000
C          C       0.36518   0.59997   0.50000
C          C       0.40003   0.76521   0.50000
C          C       0.23479   0.63482   0.50000
C          C       0.61208   0.41451   0.50000
C          C       0.58549   0.19757   0.50000
C          C       0.80243   0.38792   0.50000
C          C       0.38792   0.58549   0.50000
C          C       0.41451   0.80243   0.50000
C          C       0.19757   0.61208   0.50000
C          C       0.64450   0.34745   0.50000
C          C       0.65255   0.29705   0.50000
C          C       0.70295   0.35550   0.50000
C          C       0.35550   0.65255   0.50000
C          C       0.34745   0.70295   0.50000
C          C       0.29705   0.64450   0.50000
N          N       0.68071   0.36943   0.50000
N          N       0.63057   0.31128   0.50000
N          N       0.68872   0.31929   0.50000
N          N       0.31929   0.63057   0.50000
N          N       0.36943   0.68872   0.50000
N          N       0.31128   0.68071   0.50000
S          S       0.45002   0.50233   0.50000
S          S       0.49767   0.94769   0.50000
S          S       0.05231   0.54998   0.50000
S          S       0.54998   0.49767   0.50000
S          S       0.50233   0.05231   0.50000
S          S       0.94769   0.45002   0.50000
H          H       0.45114   0.43556   0.50000
H          H       0.56444   0.01558   0.50000
H          H       0.98442   0.54886   0.50000
H          H       0.54886   0.56444   0.50000
H          H       0.43556   0.98442   0.50000
H          H       0.01558   0.45114   0.50000
H          H       0.48300   0.39998   0.50000
H          H       0.60002   0.08302   0.50000
H          H       0.91698   0.51700   0.50000
H          H       0.51700   0.60002   0.50000
H          H       0.39998   0.91698   0.50000
H          H       0.08302   0.48300   0.50000
H          H       0.59159   0.45972   0.50000
H          H       0.54028   0.13187   0.50000
H          H       0.86813   0.40841   0.50000
H          H       0.40841   0.54028   0.50000
H          H       0.45972   0.86813   0.50000
H          H       0.13187   0.59159   0.50000
H          H       0.53001   0.33600   0.50000
H          H       0.66400   0.19401   0.50000
H          H       0.80599   0.46999   0.50000
H          H       0.46999   0.66400   0.50000
H          H       0.33600   0.80599   0.50000
H          H       0.19401   0.53001   0.50000
H          H       0.57134   0.30975   0.50000
H          H       0.69025   0.26159   0.50000
H          H       0.73841   0.42866   0.50000
H          H       0.42866   0.69025   0.50000
H          H       0.30975   0.73841   0.50000
H          H       0.26159   0.57134   0.50000
H          H       0.66516   0.41875   0.50000
H          H       0.58125   0.24641   0.50000
H          H       0.75359   0.33484   0.50000
H          H       0.33484   0.58125   0.50000
H          H       0.41875   0.75359   0.50000
H          H       0.24641   0.66516   0.50000
H          H       0.62389   0.44488   0.50000
H          H       0.55512   0.17901   0.50000
H          H       0.82099   0.37611   0.50000
H          H       0.37611   0.55512   0.50000
H          H       0.44488   0.82099   0.50000
H          H       0.17901   0.62389   0.50000
