data_crystal

_cell_length_a    24.17500
_cell_length_b    4.08900
_cell_length_c    48.29800
_cell_angle_alpha 90.00000
_cell_angle_beta  89.00500
_cell_angle_gamma 90.00000

_space_group_name_Hall 'P 1'
_space_group_name_H-M_alt 'P 1'

loop_
_symmetry_equiv_pos_as_xyz
 'x,y,z'

loop_
_atom_site_label
_atom_site_type_symbol
_atom_site_fract_x
_atom_site_fract_y
_atom_site_fract_z
C          C       0.52651   0.12267   0.02529
C          C       0.47349   0.12267   0.47471
C          C       0.55758   0.03033   0.00089
C          C       0.44242   0.03033   0.49911
O          O       0.55326   0.20232   0.04999
O          O       0.44674   0.20232   0.45001
C          C       0.61843   0.10130   0.00338
C          C       0.38157   0.10130   0.49662
C          C       0.88314   0.09769   0.47515
C          C       0.11686   0.09769   0.02485
C          C       0.92294   0.13868   0.49620
C          C       0.07706   0.13868   0.00380
C          C       0.98007   0.11746   0.48936
C          C       0.01993   0.11746   0.01064
C          C       0.99773   0.10861   0.46131
C          C       0.00227   0.10861   0.03869
C          C       0.95868   0.04172   0.44051
C          C       0.04132   0.04172   0.05949
C          C       0.90258   0.01790   0.44844
C          C       0.09742   0.01790   0.05156
C          C       0.09147   0.21315   0.47635
C          C       0.90853   0.21315   0.02365
C          C       0.05329   0.18355   0.45530
C          C       0.94671   0.18355   0.04470
C          C       0.82153   0.14021   0.47892
C          C       0.17847   0.14021   0.02108
C          C       0.79125   0.02517   0.00231
C          C       0.20875   0.02517   0.49769
C          C       0.73353   0.08335   0.00508
C          C       0.26647   0.08335   0.49492
C          C       0.70532   0.19199   0.48141
C          C       0.29468   0.19199   0.01859
C          C       0.73457   0.29998   0.45808
C          C       0.26543   0.29998   0.04192
C          C       0.79201   0.28975   0.45742
C          C       0.20799   0.28975   0.04258
N          N       0.64945   0.18307   0.48083
N          N       0.35055   0.18307   0.01917
C          C       0.60481   0.03694   0.05420
C          C       0.39519   0.03694   0.44580
C          C       0.64351   0.05745   0.02911
C          C       0.35649   0.05745   0.47089
C          C       0.70249   0.03645   0.03031
C          C       0.29751   0.03645   0.46969
C          C       0.73128   0.00247   0.05757
C          C       0.26872   0.00247   0.44243
C          C       0.71193   0.79058   0.07856
C          C       0.28807   0.79058   0.42144
C          C       0.73757   0.77824   0.10428
C          C       0.26243   0.77824   0.39572
C          C       0.78555   0.96021   0.10896
C          C       0.21445   0.96021   0.39104
C          C       0.80604   0.16609   0.08805
C          C       0.19396   0.16609   0.41196
C          C       0.77771   0.19649   0.06322
C          C       0.22229   0.19649   0.43678
C          C       0.81392   0.93598   0.13624
C          C       0.18608   0.93598   0.36376
C          C       0.94411   0.79403   0.25815
C          C       0.05589   0.79403   0.24185
C          C       0.98524   0.79334   0.27820
C          C       0.01476   0.79334   0.22180
O          O       0.88810   0.79096   0.26603
O          O       0.11190   0.79096   0.23397
C          C       0.96817   0.82103   0.30750
C          C       0.03183   0.82103   0.19250
C          C       0.87360   0.96623   0.29085
C          C       0.12640   0.96623   0.20915
C          C       0.91378   0.91859   0.31442
C          C       0.08622   0.91859   0.18558
C          C       0.90009   0.99124   0.34268
C          C       0.09991   0.99124   0.15732
C          C       0.94285   0.96577   0.36248
C          C       0.05715   0.96577   0.13752
C          C       0.99368   0.82201   0.35463
C          C       0.00632   0.82201   0.14537
N          N       0.00532   0.76255   0.32762
N          N       0.99468   0.76255   0.17238
C          C       0.93627   0.07498   0.38998
C          C       0.06373   0.07498   0.11002
C          C       0.02114   0.80645   0.40253
C          C       0.97886   0.80645   0.09747
C          C       0.03235   0.74115   0.37465
C          C       0.96765   0.74115   0.12535
C          C       0.97353   0.98207   0.41063
C          C       0.02647   0.98207   0.08937
C          C       0.84132   0.05029   0.35236
C          C       0.15868   0.05029   0.14764
C          C       0.80594   0.26755   0.33871
C          C       0.19406   0.26755   0.16129
C          C       0.75095   0.30787   0.34754
C          C       0.24905   0.30787   0.15246
C          C       0.73100   0.14700   0.37128
C          C       0.26900   0.14700   0.12872
C          C       0.76629   0.93853   0.38566
C          C       0.23371   0.93853   0.11434
C          C       0.82015   0.88372   0.37586
C          C       0.17985   0.88372   0.12414
C          C       0.67246   0.19999   0.38106
C          C       0.32754   0.19999   0.11894
H          H       0.87270   0.94340   0.43326
H          H       0.12730   0.94340   0.06674
H          H       0.13194   0.29574   0.47083
H          H       0.86806   0.29574   0.02917
H          H       0.06788   0.22604   0.43441
H          H       0.93212   0.22604   0.06559
H          H       0.81225   0.88684   0.01804
H          H       0.18775   0.88684   0.48196
H          H       0.71275   0.39608   0.44046
H          H       0.28725   0.39608   0.05954
H          H       0.81332   0.38875   0.43938
H          H       0.18668   0.38875   0.06062
H          H       0.59591   0.77660   0.05878
H          H       0.40409   0.77660   0.44122
H          H       0.62382   0.14994   0.07256
H          H       0.37618   0.14994   0.42744
H          H       0.67793   0.62691   0.07502
H          H       0.32207   0.62691   0.42499
H          H       0.72138   0.61537   0.12014
H          H       0.27862   0.61537   0.37986
H          H       0.84205   0.31725   0.09149
H          H       0.15795   0.31725   0.40851
H          H       0.79010   0.38604   0.04890
H          H       0.20990   0.38604   0.45110
H          H       0.85225   0.08568   0.13650
H          H       0.14775   0.08568   0.36350
H          H       0.82524   0.67785   0.14033
H          H       0.17476   0.67785   0.35967
H          H       0.78561   0.02296   0.15302
H          H       0.21439   0.02296   0.34698
H          H       0.83145   0.88626   0.29704
H          H       0.16855   0.88626   0.20296
H          H       0.87210   0.22950   0.28575
H          H       0.12790   0.22950   0.21425
H          H       0.90121   0.22640   0.39561
H          H       0.09879   0.22640   0.10439
H          H       0.05009   0.72086   0.41757
H          H       0.94991   0.72086   0.08243
H          H       0.07029   0.61672   0.36875
H          H       0.92971   0.61672   0.13125
H          H       0.82074   0.41184   0.32154
H          H       0.17926   0.41184   0.17846
H          H       0.72447   0.47435   0.33642
H          H       0.27553   0.47435   0.16358
H          H       0.75177   0.81041   0.40402
H          H       0.24823   0.81041   0.09598
H          H       0.84520   0.70693   0.38660
H          H       0.15480   0.70693   0.11340
H          H       0.66548   0.46346   0.38528
H          H       0.33452   0.46346   0.11472
H          H       0.66310   0.06137   0.40036
H          H       0.33690   0.06137   0.09964
H          H       0.64361   0.11833   0.36481
H          H       0.35639   0.11833   0.13519
C          C       0.95879   0.78413   0.23004
C          C       0.04121   0.78413   0.26996
H          H       0.92648   0.78364   0.21480
H          H       0.07352   0.78364   0.28520
C          C       0.46850   0.13737   0.02407
C          C       0.53150   0.13737   0.47594
H          H       0.44464   0.19850   0.04260
H          H       0.55536   0.19850   0.45740
C          C       0.52651   0.12267   0.52529
C          C       0.47349   0.12267   0.97471
C          C       0.55758   0.03033   0.50089
C          C       0.44242   0.03033   0.99911
O          O       0.55326   0.20232   0.54999
O          O       0.44674   0.20232   0.95001
C          C       0.61843   0.10130   0.50338
C          C       0.38157   0.10130   0.99662
C          C       0.88314   0.09769   0.97515
C          C       0.11686   0.09769   0.52485
C          C       0.92294   0.13868   0.99620
C          C       0.07706   0.13868   0.50380
C          C       0.98007   0.11746   0.98936
C          C       0.01993   0.11746   0.51064
C          C       0.99773   0.10861   0.96131
C          C       0.00227   0.10861   0.53869
C          C       0.95868   0.04172   0.94051
C          C       0.04132   0.04172   0.55949
C          C       0.90258   0.01790   0.94843
C          C       0.09742   0.01790   0.55156
C          C       0.09147   0.21315   0.97635
C          C       0.90853   0.21315   0.52365
C          C       0.05329   0.18355   0.95530
C          C       0.94671   0.18355   0.54470
C          C       0.82153   0.14021   0.97893
C          C       0.17847   0.14021   0.52107
C          C       0.79125   0.02517   0.50231
C          C       0.20875   0.02517   0.99769
C          C       0.73353   0.08335   0.50508
C          C       0.26647   0.08335   0.99492
C          C       0.70532   0.19199   0.98141
C          C       0.29468   0.19199   0.51859
C          C       0.73457   0.29998   0.95808
C          C       0.26543   0.29998   0.54192
C          C       0.79201   0.28975   0.95742
C          C       0.20799   0.28975   0.54258
N          N       0.64945   0.18307   0.98083
N          N       0.35055   0.18307   0.51917
C          C       0.60481   0.03694   0.55420
C          C       0.39519   0.03694   0.94580
C          C       0.64351   0.05745   0.52911
C          C       0.35649   0.05745   0.97089
C          C       0.70249   0.03645   0.53031
C          C       0.29751   0.03645   0.96969
C          C       0.73128   0.00247   0.55757
C          C       0.26872   0.00247   0.94243
C          C       0.71193   0.79058   0.57856
C          C       0.28807   0.79058   0.92144
C          C       0.73757   0.77824   0.60428
C          C       0.26243   0.77824   0.89572
C          C       0.78555   0.96021   0.60896
C          C       0.21445   0.96021   0.89104
C          C       0.80604   0.16609   0.58805
C          C       0.19396   0.16609   0.91195
C          C       0.77771   0.19649   0.56322
C          C       0.22229   0.19649   0.93678
C          C       0.81392   0.93598   0.63624
C          C       0.18608   0.93598   0.86376
C          C       0.94411   0.79403   0.75814
C          C       0.05589   0.79403   0.74186
C          C       0.98524   0.79334   0.77820
C          C       0.01476   0.79334   0.72180
O          O       0.88810   0.79096   0.76603
O          O       0.11190   0.79096   0.73397
C          C       0.96817   0.82103   0.80750
C          C       0.03183   0.82103   0.69250
C          C       0.87360   0.96623   0.79085
C          C       0.12640   0.96623   0.70915
C          C       0.91378   0.91859   0.81442
C          C       0.08622   0.91859   0.68558
C          C       0.90009   0.99124   0.84267
C          C       0.09991   0.99124   0.65733
C          C       0.94285   0.96577   0.86248
C          C       0.05715   0.96577   0.63752
C          C       0.99368   0.82201   0.85463
C          C       0.00632   0.82201   0.64537
N          N       0.00532   0.76255   0.82762
N          N       0.99468   0.76255   0.67238
C          C       0.93627   0.07498   0.88997
C          C       0.06373   0.07498   0.61003
C          C       0.02114   0.80645   0.90253
C          C       0.97886   0.80645   0.59747
C          C       0.03235   0.74115   0.87465
C          C       0.96765   0.74115   0.62535
C          C       0.97353   0.98207   0.91063
C          C       0.02647   0.98207   0.58937
C          C       0.84132   0.05029   0.85236
C          C       0.15868   0.05029   0.64764
C          C       0.80594   0.26755   0.83871
C          C       0.19406   0.26755   0.66129
C          C       0.75095   0.30787   0.84754
C          C       0.24905   0.30787   0.65246
C          C       0.73100   0.14700   0.87128
C          C       0.26900   0.14700   0.62872
C          C       0.76629   0.93853   0.88567
C          C       0.23371   0.93853   0.61434
C          C       0.82015   0.88372   0.87586
C          C       0.17985   0.88372   0.62414
C          C       0.67246   0.19999   0.88106
C          C       0.32754   0.19999   0.61894
H          H       0.87270   0.94340   0.93325
H          H       0.12730   0.94340   0.56675
H          H       0.13194   0.29574   0.97083
H          H       0.86806   0.29574   0.52917
H          H       0.06788   0.22604   0.93441
H          H       0.93212   0.22604   0.56559
H          H       0.81225   0.88684   0.51804
H          H       0.18775   0.88684   0.98196
H          H       0.71275   0.39608   0.94046
H          H       0.28725   0.39608   0.55954
H          H       0.81332   0.38875   0.93937
H          H       0.18668   0.38875   0.56063
H          H       0.59591   0.77660   0.55878
H          H       0.40409   0.77660   0.94122
H          H       0.62382   0.14994   0.57256
H          H       0.37618   0.14994   0.92744
H          H       0.67793   0.62691   0.57502
H          H       0.32207   0.62691   0.92498
H          H       0.72138   0.61537   0.62014
H          H       0.27862   0.61537   0.87986
H          H       0.84205   0.31725   0.59149
H          H       0.15795   0.31725   0.90852
H          H       0.79010   0.38604   0.54890
H          H       0.20990   0.38604   0.95110
H          H       0.85225   0.08568   0.63650
H          H       0.14775   0.08568   0.86350
H          H       0.82524   0.67785   0.64033
H          H       0.17476   0.67785   0.85967
H          H       0.78561   0.02296   0.65302
H          H       0.21439   0.02296   0.84698
H          H       0.83145   0.88626   0.79704
H          H       0.16855   0.88626   0.70296
H          H       0.87210   0.22950   0.78575
H          H       0.12790   0.22950   0.71425
H          H       0.90121   0.22640   0.89562
H          H       0.09879   0.22640   0.60438
H          H       0.05009   0.72086   0.91757
H          H       0.94991   0.72086   0.58243
H          H       0.07029   0.61672   0.86875
H          H       0.92971   0.61672   0.63125
H          H       0.82074   0.41184   0.82154
H          H       0.17926   0.41184   0.67846
H          H       0.72447   0.47435   0.83642
H          H       0.27553   0.47435   0.66358
H          H       0.75177   0.81041   0.90402
H          H       0.24823   0.81041   0.59598
H          H       0.84520   0.70693   0.88660
H          H       0.15480   0.70693   0.61340
H          H       0.66548   0.46346   0.88528
H          H       0.33452   0.46346   0.61472
H          H       0.66310   0.06137   0.90036
H          H       0.33690   0.06137   0.59964
H          H       0.64361   0.11833   0.86481
H          H       0.35639   0.11833   0.63519
C          C       0.95879   0.78413   0.73004
C          C       0.04121   0.78413   0.76996
H          H       0.92648   0.78364   0.71480
H          H       0.07352   0.78364   0.78521
C          C       0.46850   0.13737   0.52407
C          C       0.53150   0.13737   0.97593
H          H       0.44464   0.19850   0.54260
H          H       0.55536   0.19850   0.95740
