data_crystal

_cell_length_a    36.03400
_cell_length_b    36.03400
_cell_length_c    8.30600
_cell_angle_alpha 90.00000
_cell_angle_beta  90.00000
_cell_angle_gamma 120.00000

_space_group_name_Hall 'P 1'
_space_group_name_H-M_alt 'P 1'

loop_
_symmetry_equiv_pos_as_xyz
 'x,y,z'

loop_
_atom_site_label
_atom_site_type_symbol
_atom_site_fract_x
_atom_site_fract_y
_atom_site_fract_z
C          C       0.01647   0.97223   0.22342
C          C       0.02777   0.04424   0.22342
C          C       0.95576   0.98353   0.22342
C          C       0.04491   0.01667   0.22627
C          C       0.98333   0.02824   0.22627
C          C       0.97176   0.95509   0.22627
C          C       0.36251   0.21008   0.48837
C          C       0.78992   0.15243   0.48837
C          C       0.84757   0.63749   0.48837
C          C       0.32127   0.19324   0.42475
C          C       0.80676   0.12803   0.42475
C          C       0.87197   0.67873   0.42475
C          C       0.29182   0.14955   0.44148
C          C       0.85045   0.14227   0.44148
C          C       0.85773   0.70818   0.44148
C          C       0.30416   0.12311   0.02212
C          C       0.87689   0.18105   0.02212
C          C       0.81895   0.69584   0.02212
C          C       0.34541   0.13995   0.08569
C          C       0.86005   0.20546   0.08569
C          C       0.79454   0.65459   0.08569
C          C       0.37484   0.18365   0.06904
C          C       0.81635   0.19119   0.06904
C          C       0.80881   0.62516   0.06904
O          O       0.31094   0.22143   0.34727
O          O       0.77857   0.08951   0.34727
O          O       0.91049   0.68906   0.34727
C          C       0.26944   0.20630   0.27650
C          C       0.79370   0.06314   0.27650
C          C       0.93686   0.73056   0.27650
C          C       0.23584   0.15959   0.30468
C          C       0.84041   0.07625   0.30468
C          C       0.92375   0.76416   0.30468
C          C       0.24817   0.13236   0.37880
C          C       0.86764   0.11581   0.37880
C          C       0.88419   0.75183   0.37880
O          O       0.35573   0.11177   0.16320
O          O       0.88823   0.24396   0.16320
O          O       0.75604   0.64427   0.16320
C          C       0.39727   0.12686   0.23353
C          C       0.87314   0.27041   0.23353
C          C       0.72959   0.60273   0.23353
C          C       0.43084   0.17360   0.20573
C          C       0.82640   0.25724   0.20573
C          C       0.74276   0.56916   0.20573
C          C       0.41848   0.20085   0.13190
C          C       0.79915   0.21763   0.13190
C          C       0.78237   0.58152   0.13190
C          C       0.47461   0.19087   0.25370
C          C       0.80913   0.28374   0.25370
C          C       0.71626   0.52539   0.25370
C          C       0.50257   0.23597   0.24198
C          C       0.76403   0.26660   0.24198
C          C       0.73340   0.49743   0.24198
C          C       0.48830   0.26100   0.16225
C          C       0.73900   0.22730   0.16225
C          C       0.77270   0.51170   0.16225
N          N       0.44739   0.24295   0.11041
N          N       0.75705   0.20444   0.11041
N          N       0.79556   0.55261   0.11041
C          C       0.16408   0.09724   0.26876
C          C       0.90276   0.06684   0.26876
C          C       0.93316   0.83592   0.26876
C          C       0.17831   0.07223   0.34888
C          C       0.92777   0.10608   0.34888
C          C       0.89392   0.82169   0.34888
N          N       0.21923   0.09027   0.40066
N          N       0.90973   0.12896   0.40066
N          N       0.87104   0.78077   0.40066
C          C       0.54490   0.25655   0.30149
C          C       0.74345   0.28835   0.30149
C          C       0.71165   0.45510   0.30149
C          C       0.57478   0.29892   0.25683
C          C       0.70108   0.27586   0.25683
C          C       0.72414   0.42522   0.25683
C          C       0.55984   0.32243   0.16968
C          C       0.67757   0.23741   0.16968
C          C       0.76259   0.44016   0.16968
C          C       0.51671   0.30407   0.12871
C          C       0.69593   0.21264   0.12871
C          C       0.78736   0.48329   0.12871
C          C       0.12177   0.07664   0.20910
C          C       0.92336   0.04513   0.20910
C          C       0.95487   0.87823   0.20910
C          C       0.09186   0.03432   0.25411
C          C       0.96568   0.05754   0.25411
C          C       0.94246   0.90814   0.25411
C          C       0.10676   0.01082   0.34165
C          C       0.98918   0.09594   0.34165
C          C       0.90406   0.89324   0.34165
C          C       0.14988   0.02918   0.38272
C          C       0.97082   0.12070   0.38272
C          C       0.87930   0.85012   0.38272
C          C       0.62175   0.31661   0.28466
C          C       0.68339   0.30514   0.28466
C          C       0.69486   0.37825   0.28466
C          C       0.63894   0.28909   0.28752
C          C       0.71091   0.34985   0.28752
C          C       0.65015   0.36106   0.28752
C          C       0.49333   0.16239   0.28528
C          C       0.83761   0.33094   0.28528
C          C       0.66906   0.50667   0.28528
C          C       0.47471   0.12790   0.39362
C          C       0.87210   0.34681   0.39362
C          C       0.65319   0.52529   0.39362
C          C       0.49164   0.10077   0.41444
C          C       0.89923   0.39087   0.41444
C          C       0.60913   0.50836   0.41444
C          C       0.52910   0.10895   0.33384
C          C       0.89105   0.42015   0.33384
C          C       0.57985   0.47090   0.33384
C          C       0.54889   0.14406   0.22947
C          C       0.85594   0.40483   0.22947
C          C       0.59517   0.45111   0.22947
C          C       0.53067   0.16979   0.20267
C          C       0.83021   0.36088   0.20267
C          C       0.63912   0.46933   0.20267
C          C       0.54761   0.08030   0.36051
C          C       0.91970   0.46731   0.36051
C          C       0.53269   0.45239   0.36051
C          C       0.19206   0.14232   0.25669
C          C       0.85768   0.04974   0.25669
C          C       0.95026   0.80794   0.25669
C          C       0.17338   0.17079   0.22408
C          C       0.82921   0.00259   0.22408
C          C       0.99741   0.82662   0.22408
C          C       0.19204   0.20511   0.11504
C          C       0.79489   0.98693   0.11504
C          C       0.01307   0.80796   0.11504
C          C       0.17494   0.23202   0.09198
C          C       0.76798   0.94292   0.09198
C          C       0.05708   0.82506   0.09198
C          C       0.13725   0.22375   0.17124
C          C       0.77625   0.91350   0.17124
C          C       0.08650   0.86275   0.17124
C          C       0.11758   0.18897   0.27691
C          C       0.81103   0.92861   0.27691
C          C       0.07139   0.88242   0.27691
C          C       0.13595   0.16345   0.30582
C          C       0.83655   0.97250   0.30582
C          C       0.02750   0.86405   0.30582
C          C       0.11751   0.25123   0.14253
C          C       0.74877   0.86628   0.14253
C          C       0.13372   0.88249   0.14253
H          H       0.04905   0.07842   0.22736
H          H       0.92158   0.97063   0.22736
H          H       0.02937   0.95095   0.22736
H          H       0.38488   0.24398   0.47359
H          H       0.75602   0.14090   0.47359
H          H       0.85910   0.61512   0.47359
H          H       0.28179   0.08921   0.03692
H          H       0.91079   0.19258   0.03692
H          H       0.80742   0.71821   0.03692
H          H       0.27466   0.21145   0.14554
H          H       0.78855   0.06321   0.14554
H          H       0.93679   0.72534   0.14554
H          H       0.25750   0.22737   0.32064
H          H       0.77263   0.03013   0.32064
H          H       0.96987   0.74250   0.32064
H          H       0.40921   0.10585   0.18870
H          H       0.89415   0.30336   0.18870
H          H       0.69664   0.59079   0.18870
H          H       0.39212   0.12161   0.36451
H          H       0.87839   0.27051   0.36451
H          H       0.72949   0.60788   0.36451
H          H       0.55497   0.23910   0.37860
H          H       0.76090   0.31587   0.37860
H          H       0.68413   0.44503   0.37860
H          H       0.58135   0.35452   0.12698
H          H       0.64548   0.22683   0.12698
H          H       0.77317   0.41865   0.12698
H          H       0.50590   0.32280   0.06235
H          H       0.67720   0.18310   0.06235
H          H       0.81690   0.49410   0.06235
H          H       0.11172   0.09403   0.13156
H          H       0.90597   0.01769   0.13156
H          H       0.98231   0.88828   0.13156
H          H       0.08522   0.97876   0.38455
H          H       0.02124   0.10646   0.38455
H          H       0.89354   0.91478   0.38455
H          H       0.16067   0.01046   0.44935
H          H       0.98954   0.15021   0.44935
H          H       0.84979   0.83933   0.44935
H          H       0.61769   0.25491   0.28364
H          H       0.74509   0.36278   0.28364
H          H       0.63722   0.38231   0.28364
H          H       0.44766   0.12222   0.46519
H          H       0.87778   0.32544   0.46519
H          H       0.67456   0.55234   0.46519
H          H       0.47632   0.07419   0.49782
H          H       0.92581   0.40213   0.49782
H          H       0.59787   0.52368   0.49782
H          H       0.57778   0.15091   0.16517
H          H       0.84909   0.42687   0.16517
H          H       0.57313   0.42222   0.16517
H          H       0.54568   0.19540   0.11539
H          H       0.80460   0.35028   0.11539
H          H       0.64972   0.45432   0.11539
H          H       0.52414   0.04720   0.32176
H          H       0.95280   0.47694   0.32176
H          H       0.52306   0.47586   0.32176
H          H       0.55481   0.07997   0.49021
H          H       0.92003   0.47484   0.49021
H          H       0.52516   0.44519   0.49021
H          H       0.57772   0.09137   0.29135
H          H       0.90863   0.48635   0.29135
H          H       0.51365   0.42228   0.29135
H          H       0.21919   0.21074   0.04425
H          H       0.78926   0.00845   0.04425
H          H       0.99155   0.78081   0.04425
H          H       0.19030   0.25833   0.00750
H          H       0.74167   0.93197   0.00750
H          H       0.06803   0.80970   0.00750
H          H       0.08856   0.18222   0.33997
H          H       0.81778   0.90634   0.33997
H          H       0.09366   0.91144   0.33997
H          H       0.12092   0.13801   0.39375
H          H       0.86199   0.98291   0.39375
H          H       0.01709   0.87908   0.39375
H          H       0.11513   0.26538   0.25806
H          H       0.73462   0.84975   0.25806
H          H       0.15025   0.88487   0.25806
H          H       0.08490   0.23140   0.09129
H          H       0.76860   0.85350   0.09129
H          H       0.14650   0.91510   0.09129
H          H       0.13692   0.27772   0.05733
H          H       0.72228   0.85920   0.05733
H          H       0.14080   0.86308   0.05733
C          C       0.01647   0.97223   0.72342
C          C       0.02777   0.04424   0.72342
C          C       0.95576   0.98353   0.72342
C          C       0.04491   0.01667   0.72627
C          C       0.98333   0.02824   0.72627
C          C       0.97176   0.95509   0.72627
C          C       0.36251   0.21008   0.98837
C          C       0.78992   0.15243   0.98837
C          C       0.84757   0.63749   0.98837
C          C       0.32127   0.19324   0.92475
C          C       0.80676   0.12803   0.92475
C          C       0.87197   0.67873   0.92475
C          C       0.29182   0.14955   0.94148
C          C       0.85045   0.14227   0.94148
C          C       0.85773   0.70818   0.94148
C          C       0.30416   0.12311   0.52212
C          C       0.87689   0.18105   0.52212
C          C       0.81895   0.69584   0.52212
C          C       0.34541   0.13995   0.58569
C          C       0.86005   0.20546   0.58569
C          C       0.79454   0.65459   0.58569
C          C       0.37484   0.18365   0.56905
C          C       0.81635   0.19119   0.56905
C          C       0.80881   0.62516   0.56905
O          O       0.31094   0.22143   0.84727
O          O       0.77857   0.08951   0.84727
O          O       0.91049   0.68906   0.84727
C          C       0.26944   0.20630   0.77650
C          C       0.79370   0.06314   0.77650
C          C       0.93686   0.73056   0.77650
C          C       0.23584   0.15959   0.80468
C          C       0.84041   0.07625   0.80468
C          C       0.92375   0.76416   0.80468
C          C       0.24817   0.13236   0.87880
C          C       0.86764   0.11581   0.87880
C          C       0.88419   0.75183   0.87880
O          O       0.35573   0.11177   0.66320
O          O       0.88823   0.24396   0.66320
O          O       0.75604   0.64427   0.66320
C          C       0.39727   0.12686   0.73354
C          C       0.87314   0.27041   0.73354
C          C       0.72959   0.60273   0.73354
C          C       0.43084   0.17360   0.70573
C          C       0.82640   0.25724   0.70573
C          C       0.74276   0.56916   0.70573
C          C       0.41848   0.20085   0.63189
C          C       0.79915   0.21763   0.63189
C          C       0.78237   0.58152   0.63189
C          C       0.47461   0.19087   0.75370
C          C       0.80913   0.28374   0.75370
C          C       0.71626   0.52539   0.75370
C          C       0.50257   0.23597   0.74198
C          C       0.76403   0.26660   0.74198
C          C       0.73340   0.49743   0.74198
C          C       0.48830   0.26100   0.66225
C          C       0.73900   0.22730   0.66225
C          C       0.77270   0.51170   0.66225
N          N       0.44739   0.24295   0.61041
N          N       0.75705   0.20444   0.61041
N          N       0.79556   0.55261   0.61041
C          C       0.16408   0.09724   0.76876
C          C       0.90276   0.06684   0.76876
C          C       0.93316   0.83592   0.76876
C          C       0.17831   0.07223   0.84888
C          C       0.92777   0.10608   0.84888
C          C       0.89392   0.82169   0.84888
N          N       0.21923   0.09027   0.90066
N          N       0.90973   0.12896   0.90066
N          N       0.87104   0.78077   0.90066
C          C       0.54490   0.25655   0.80149
C          C       0.74345   0.28835   0.80149
C          C       0.71165   0.45510   0.80149
C          C       0.57478   0.29892   0.75683
C          C       0.70108   0.27586   0.75683
C          C       0.72414   0.42522   0.75683
C          C       0.55984   0.32243   0.66968
C          C       0.67757   0.23741   0.66968
C          C       0.76259   0.44016   0.66968
C          C       0.51671   0.30407   0.62871
C          C       0.69593   0.21264   0.62871
C          C       0.78736   0.48329   0.62871
C          C       0.12177   0.07664   0.70910
C          C       0.92336   0.04513   0.70910
C          C       0.95487   0.87823   0.70910
C          C       0.09186   0.03432   0.75411
C          C       0.96568   0.05754   0.75411
C          C       0.94246   0.90814   0.75411
C          C       0.10676   0.01082   0.84165
C          C       0.98918   0.09594   0.84165
C          C       0.90406   0.89324   0.84165
C          C       0.14988   0.02918   0.88272
C          C       0.97082   0.12070   0.88272
C          C       0.87930   0.85012   0.88272
C          C       0.62175   0.31661   0.78466
C          C       0.68339   0.30514   0.78466
C          C       0.69486   0.37825   0.78466
C          C       0.63894   0.28909   0.78752
C          C       0.71091   0.34985   0.78752
C          C       0.65015   0.36106   0.78752
C          C       0.49333   0.16239   0.78528
C          C       0.83761   0.33094   0.78528
C          C       0.66906   0.50667   0.78528
C          C       0.47471   0.12790   0.89362
C          C       0.87210   0.34681   0.89362
C          C       0.65319   0.52529   0.89362
C          C       0.49164   0.10077   0.91444
C          C       0.89923   0.39087   0.91444
C          C       0.60913   0.50836   0.91444
C          C       0.52910   0.10895   0.83384
C          C       0.89105   0.42015   0.83384
C          C       0.57985   0.47090   0.83384
C          C       0.54889   0.14406   0.72947
C          C       0.85594   0.40483   0.72947
C          C       0.59517   0.45111   0.72947
C          C       0.53067   0.16979   0.70268
C          C       0.83021   0.36088   0.70268
C          C       0.63912   0.46933   0.70268
C          C       0.54761   0.08030   0.86052
C          C       0.91970   0.46731   0.86052
C          C       0.53269   0.45239   0.86052
C          C       0.19206   0.14232   0.75669
C          C       0.85768   0.04974   0.75669
C          C       0.95026   0.80794   0.75669
C          C       0.17338   0.17079   0.72408
C          C       0.82921   0.00259   0.72408
C          C       0.99741   0.82662   0.72408
C          C       0.19204   0.20511   0.61504
C          C       0.79489   0.98693   0.61504
C          C       0.01307   0.80796   0.61504
C          C       0.17494   0.23202   0.59198
C          C       0.76798   0.94292   0.59198
C          C       0.05708   0.82506   0.59198
C          C       0.13725   0.22375   0.67124
C          C       0.77625   0.91350   0.67124
C          C       0.08650   0.86275   0.67124
C          C       0.11758   0.18897   0.77691
C          C       0.81103   0.92861   0.77691
C          C       0.07139   0.88242   0.77691
C          C       0.13595   0.16345   0.80582
C          C       0.83655   0.97250   0.80582
C          C       0.02750   0.86405   0.80582
C          C       0.11751   0.25123   0.64253
C          C       0.74877   0.86628   0.64253
C          C       0.13372   0.88249   0.64253
H          H       0.04905   0.07842   0.72737
H          H       0.92158   0.97063   0.72737
H          H       0.02937   0.95095   0.72737
H          H       0.38488   0.24398   0.97359
H          H       0.75602   0.14090   0.97359
H          H       0.85910   0.61512   0.97359
H          H       0.28179   0.08921   0.53692
H          H       0.91079   0.19258   0.53692
H          H       0.80742   0.71821   0.53692
H          H       0.27466   0.21145   0.64554
H          H       0.78855   0.06321   0.64554
H          H       0.93679   0.72534   0.64554
H          H       0.25750   0.22737   0.82064
H          H       0.77263   0.03013   0.82064
H          H       0.96987   0.74250   0.82064
H          H       0.40921   0.10585   0.68869
H          H       0.89415   0.30336   0.68869
H          H       0.69664   0.59079   0.68869
H          H       0.39212   0.12161   0.86451
H          H       0.87839   0.27051   0.86451
H          H       0.72949   0.60788   0.86451
H          H       0.55497   0.23910   0.87860
H          H       0.76090   0.31587   0.87860
H          H       0.68413   0.44503   0.87860
H          H       0.58135   0.35452   0.62698
H          H       0.64548   0.22683   0.62698
H          H       0.77317   0.41865   0.62698
H          H       0.50590   0.32280   0.56235
H          H       0.67720   0.18310   0.56235
H          H       0.81690   0.49410   0.56235
H          H       0.11172   0.09403   0.63157
H          H       0.90597   0.01769   0.63157
H          H       0.98231   0.88828   0.63157
H          H       0.08522   0.97876   0.88456
H          H       0.02124   0.10646   0.88456
H          H       0.89354   0.91478   0.88456
H          H       0.16067   0.01046   0.94935
H          H       0.98954   0.15021   0.94935
H          H       0.84979   0.83933   0.94935
H          H       0.61769   0.25491   0.78363
H          H       0.74509   0.36278   0.78363
H          H       0.63722   0.38231   0.78363
H          H       0.44766   0.12222   0.96518
H          H       0.87778   0.32544   0.96518
H          H       0.67456   0.55234   0.96518
H          H       0.47632   0.07419   0.99782
H          H       0.92581   0.40213   0.99782
H          H       0.59787   0.52368   0.99782
H          H       0.57778   0.15091   0.66518
H          H       0.84909   0.42687   0.66518
H          H       0.57313   0.42222   0.66518
H          H       0.54568   0.19540   0.61540
H          H       0.80460   0.35028   0.61540
H          H       0.64972   0.45432   0.61540
H          H       0.52414   0.04720   0.82176
H          H       0.95280   0.47694   0.82176
H          H       0.52306   0.47586   0.82176
H          H       0.55481   0.07997   0.99021
H          H       0.92003   0.47484   0.99021
H          H       0.52516   0.44519   0.99021
H          H       0.57772   0.09137   0.79135
H          H       0.90863   0.48635   0.79135
H          H       0.51365   0.42228   0.79135
H          H       0.21919   0.21074   0.54426
H          H       0.78926   0.00845   0.54426
H          H       0.99155   0.78081   0.54426
H          H       0.19030   0.25833   0.50750
H          H       0.74167   0.93197   0.50750
H          H       0.06803   0.80970   0.50750
H          H       0.08856   0.18222   0.83997
H          H       0.81778   0.90634   0.83997
H          H       0.09366   0.91144   0.83997
H          H       0.12092   0.13801   0.89375
H          H       0.86199   0.98291   0.89375
H          H       0.01709   0.87908   0.89375
H          H       0.11513   0.26538   0.75806
H          H       0.73462   0.84975   0.75806
H          H       0.15025   0.88487   0.75806
H          H       0.08490   0.23140   0.59129
H          H       0.76860   0.85350   0.59129
H          H       0.14650   0.91510   0.59129
H          H       0.13692   0.27772   0.55733
H          H       0.72228   0.85920   0.55733
H          H       0.14080   0.86308   0.55733
