data_crystal

_cell_length_a    28.43300
_cell_length_b    4.21300
_cell_length_c    56.17600
_cell_angle_alpha 90.00000
_cell_angle_beta  89.77500
_cell_angle_gamma 90.00000

_space_group_name_Hall 'P 1'
_space_group_name_H-M_alt 'P 1'

loop_
_symmetry_equiv_pos_as_xyz
 'x,y,z'

loop_
_atom_site_label
_atom_site_type_symbol
_atom_site_fract_x
_atom_site_fract_y
_atom_site_fract_z
C          C       0.59902   0.25591   0.02040
C          C       0.40098   0.25591   0.47960
C          C       0.62445   0.09603   0.00265
C          C       0.37555   0.09603   0.49735
C          C       0.60037   0.95608   0.48350
C          C       0.39963   0.95608   0.01650
O          O       0.62106   0.40897   0.03950
O          O       0.37894   0.40897   0.46050
C          C       0.67582   0.07725   0.00443
C          C       0.32418   0.07725   0.49557
C          C       0.82385   0.06387   0.00292
C          C       0.17615   0.06387   0.49708
C          C       0.77414   0.05514   0.00550
C          C       0.22586   0.05514   0.49450
C          C       0.74798   0.90461   0.48740
C          C       0.25202   0.90461   0.01260
C          C       0.77048   0.73527   0.46935
C          C       0.22952   0.73527   0.03065
C          C       0.81927   0.72484   0.46820
C          C       0.18073   0.72484   0.03180
N          N       0.70053   0.92200   0.48737
N          N       0.29947   0.92200   0.01263
C          C       0.67080   0.37766   0.04329
C          C       0.32920   0.37766   0.45671
C          C       0.69907   0.20878   0.02404
C          C       0.30093   0.20878   0.47596
C          C       0.74906   0.18515   0.02536
C          C       0.25094   0.18515   0.47464
C          C       0.77341   0.25746   0.04834
C          C       0.22659   0.25746   0.45166
C          C       0.76127   0.09425   0.06935
C          C       0.23873   0.09425   0.43065
C          C       0.78472   0.15532   0.09070
C          C       0.21528   0.15532   0.40930
C          C       0.82194   0.37249   0.09130
C          C       0.17806   0.37249   0.40870
C          C       0.83453   0.53357   0.07042
C          C       0.16547   0.53357   0.42958
C          C       0.80931   0.48299   0.04946
C          C       0.19069   0.48299   0.45054
C          C       0.84728   0.43400   0.11419
C          C       0.15272   0.43400   0.38581
C          C       0.98220   0.90530   0.49112
C          C       0.01780   0.90530   0.00888
C          C       0.99506   0.91543   0.46675
C          C       0.00494   0.91543   0.03325
C          C       0.92323   0.84345   0.02190
C          C       0.07677   0.84345   0.47810
C          C       0.93403   0.89238   0.49782
C          C       0.06597   0.89238   0.00218
C          C       0.89874   0.92079   0.48009
C          C       0.10126   0.92079   0.01991
C          C       0.91286   0.97957   0.45658
C          C       0.08714   0.97957   0.04342
C          C       0.96006   0.96911   0.44930
C          C       0.03994   0.96911   0.05070
C          C       0.01261   0.46000   0.30462
C          C       0.98739   0.46000   0.19538
C          C       0.94800   0.31057   0.26914
C          C       0.05200   0.31057   0.23086
C          C       0.93621   0.25895   0.29302
C          C       0.06379   0.25895   0.20698
C          C       0.96898   0.32555   0.31085
C          C       0.03102   0.32555   0.18915
O          O       0.89144   0.13833   0.29817
O          O       0.10856   0.13833   0.20183
C          C       0.95768   0.24215   0.33561
C          C       0.04232   0.24215   0.16439
C          C       0.88135   0.00625   0.32118
C          C       0.11865   0.00625   0.17882
C          C       0.91543   0.08432   0.34116
C          C       0.08457   0.08432   0.15884
C          C       0.90614   0.99840   0.36540
C          C       0.09386   0.99840   0.13460
C          C       0.94235   0.04737   0.38242
C          C       0.05765   0.04737   0.11758
C          C       0.98218   0.22629   0.37593
C          C       0.01782   0.22629   0.12407
N          N       0.98872   0.31500   0.35305
N          N       0.01128   0.31500   0.14695
C          C       0.93935   0.93168   0.40592
C          C       0.06065   0.93168   0.09408
C          C       0.00763   0.23891   0.41693
C          C       0.99237   0.23891   0.08307
C          C       0.01456   0.32063   0.39314
C          C       0.98544   0.32063   0.10686
C          C       0.97049   0.03763   0.42365
C          C       0.02951   0.03763   0.07635
C          C       0.85731   0.91561   0.37397
C          C       0.14269   0.91561   0.12603
C          C       0.82910   0.68892   0.36252
C          C       0.17090   0.68892   0.13748
C          C       0.78271   0.63518   0.36981
C          C       0.21729   0.63518   0.13019
C          C       0.76439   0.79178   0.38979
C          C       0.23561   0.79178   0.11021
C          C       0.79274   0.00732   0.40208
C          C       0.20726   0.00732   0.09792
C          C       0.83815   0.07422   0.39393
C          C       0.16185   0.07422   0.10607
C          C       0.71512   0.72928   0.39819
C          C       0.28488   0.72928   0.10181
C          C       0.84677   0.89679   0.48446
C          C       0.15323   0.89679   0.01554
C          C       0.02431   0.50942   0.28074
C          C       0.97569   0.50942   0.21926
C          C       0.99262   0.42603   0.26269
C          C       0.00738   0.42603   0.23732
C          C       0.55144   0.97209   0.48228
C          C       0.44856   0.97209   0.01772
C          C       0.54986   0.26695   0.01924
C          C       0.45014   0.26695   0.48076
C          C       0.52588   0.12430   0.00030
C          C       0.47412   0.12430   0.49970
H          H       0.62087   0.82875   0.46886
H          H       0.37913   0.82875   0.03114
H          H       0.84526   0.20944   0.01611
H          H       0.15474   0.20944   0.48389
H          H       0.74884   0.60433   0.45541
H          H       0.25116   0.60433   0.04459
H          H       0.83745   0.57559   0.45397
H          H       0.16255   0.57559   0.04603
H          H       0.67632   0.24615   0.06079
H          H       0.32368   0.24615   0.43921
H          H       0.68725   0.62336   0.04497
H          H       0.31275   0.62336   0.45502
H          H       0.73198   0.90951   0.06910
H          H       0.26802   0.90951   0.43090
H          H       0.77353   0.02799   0.10771
H          H       0.22647   0.02799   0.39229
H          H       0.86539   0.70632   0.07051
H          H       0.13461   0.70632   0.42949
H          H       0.81791   0.62727   0.03284
H          H       0.18209   0.62727   0.46716
H          H       0.85708   0.19830   0.12282
H          H       0.14292   0.19830   0.37718
H          H       0.82345   0.57399   0.12674
H          H       0.17655   0.57399   0.37327
H          H       0.88057   0.57647   0.11043
H          H       0.11943   0.57647   0.38957
H          H       0.88550   0.03881   0.44248
H          H       0.11450   0.03881   0.05752
H          H       0.03864   0.52931   0.31910
H          H       0.96136   0.52931   0.18090
H          H       0.92124   0.25887   0.25459
H          H       0.07876   0.25887   0.24541
H          H       0.87957   0.73707   0.31931
H          H       0.12043   0.73707   0.18069
H          H       0.84553   0.09394   0.32758
H          H       0.15447   0.09394   0.17242
H          H       0.91135   0.74916   0.41083
H          H       0.08865   0.74916   0.08917
H          H       0.03248   0.33715   0.43101
H          H       0.96752   0.33715   0.06899
H          H       0.04676   0.46497   0.38769
H          H       0.95324   0.46497   0.11231
H          H       0.84395   0.54531   0.34702
H          H       0.15605   0.54531   0.15298
H          H       0.75955   0.46306   0.35947
H          H       0.24045   0.46306   0.14053
H          H       0.77881   0.12903   0.41880
H          H       0.22119   0.12903   0.08120
H          H       0.86045   0.25969   0.40342
H          H       0.13955   0.25969   0.09658
H          H       0.71210   0.78947   0.41791
H          H       0.28790   0.78947   0.08209
H          H       0.70623   0.46812   0.39537
H          H       0.29377   0.46812   0.10463
H          H       0.68958   0.88274   0.38764
H          H       0.31042   0.88274   0.11236
H          H       0.05977   0.61798   0.27581
H          H       0.94023   0.61798   0.22419
H          H       0.53220   0.86107   0.46658
H          H       0.46780   0.86107   0.03342
H          H       0.52934   0.39359   0.03390
H          H       0.47066   0.39359   0.46610
C          C       0.95766   0.86247   0.03931
C          C       0.04234   0.86247   0.46069
H          H       0.88559   0.78680   0.02752
H          H       0.11441   0.78680   0.47248
H          H       0.94770   0.83492   0.05888
H          H       0.05230   0.83492   0.44112
C          C       0.59902   0.25591   0.52040
C          C       0.40098   0.25591   0.97960
C          C       0.62445   0.09603   0.50265
C          C       0.37555   0.09603   0.99735
C          C       0.60037   0.95608   0.98350
C          C       0.39963   0.95608   0.51650
O          O       0.62106   0.40897   0.53950
O          O       0.37894   0.40897   0.96050
C          C       0.67582   0.07725   0.50443
C          C       0.32418   0.07725   0.99556
C          C       0.82385   0.06387   0.50292
C          C       0.17615   0.06387   0.99708
C          C       0.77414   0.05514   0.50550
C          C       0.22586   0.05514   0.99450
C          C       0.74798   0.90461   0.98740
C          C       0.25202   0.90461   0.51260
C          C       0.77048   0.73527   0.96935
C          C       0.22952   0.73527   0.53065
C          C       0.81927   0.72484   0.96820
C          C       0.18073   0.72484   0.53180
N          N       0.70053   0.92200   0.98737
N          N       0.29947   0.92200   0.51263
C          C       0.67080   0.37766   0.54329
C          C       0.32920   0.37766   0.95671
C          C       0.69907   0.20878   0.52404
C          C       0.30093   0.20878   0.97596
C          C       0.74906   0.18515   0.52536
C          C       0.25094   0.18515   0.97464
C          C       0.77341   0.25746   0.54834
C          C       0.22659   0.25746   0.95166
C          C       0.76127   0.09425   0.56935
C          C       0.23873   0.09425   0.93065
C          C       0.78472   0.15532   0.59070
C          C       0.21528   0.15532   0.90930
C          C       0.82194   0.37249   0.59130
C          C       0.17806   0.37249   0.90871
C          C       0.83453   0.53357   0.57042
C          C       0.16547   0.53357   0.92958
C          C       0.80931   0.48299   0.54946
C          C       0.19069   0.48299   0.95054
C          C       0.84728   0.43400   0.61419
C          C       0.15272   0.43400   0.88581
C          C       0.98220   0.90530   0.99112
C          C       0.01780   0.90530   0.50888
C          C       0.99506   0.91543   0.96674
C          C       0.00494   0.91543   0.53325
C          C       0.92323   0.84345   0.52190
C          C       0.07677   0.84345   0.97810
C          C       0.93403   0.89238   0.99782
C          C       0.06597   0.89238   0.50218
C          C       0.89874   0.92079   0.98009
C          C       0.10126   0.92079   0.51991
C          C       0.91286   0.97957   0.95658
C          C       0.08714   0.97957   0.54342
C          C       0.96006   0.96911   0.94930
C          C       0.03994   0.96911   0.55070
C          C       0.01261   0.46000   0.80462
C          C       0.98739   0.46000   0.69538
C          C       0.94800   0.31057   0.76914
C          C       0.05200   0.31057   0.73086
C          C       0.93621   0.25895   0.79302
C          C       0.06379   0.25895   0.70698
C          C       0.96898   0.32555   0.81085
C          C       0.03102   0.32555   0.68915
O          O       0.89144   0.13833   0.79817
O          O       0.10856   0.13833   0.70183
C          C       0.95768   0.24215   0.83561
C          C       0.04232   0.24215   0.66439
C          C       0.88135   0.00625   0.82118
C          C       0.11865   0.00625   0.67882
C          C       0.91543   0.08432   0.84116
C          C       0.08457   0.08432   0.65884
C          C       0.90614   0.99840   0.86540
C          C       0.09386   0.99840   0.63460
C          C       0.94235   0.04737   0.88241
C          C       0.05765   0.04737   0.61759
C          C       0.98218   0.22629   0.87593
C          C       0.01782   0.22629   0.62407
N          N       0.98872   0.31500   0.85305
N          N       0.01128   0.31500   0.64695
C          C       0.93935   0.93168   0.90592
C          C       0.06065   0.93168   0.59408
C          C       0.00763   0.23891   0.91693
C          C       0.99237   0.23891   0.58307
C          C       0.01456   0.32063   0.89314
C          C       0.98544   0.32063   0.60686
C          C       0.97049   0.03763   0.92365
C          C       0.02951   0.03763   0.57635
C          C       0.85731   0.91561   0.87397
C          C       0.14269   0.91561   0.62603
C          C       0.82910   0.68892   0.86252
C          C       0.17090   0.68892   0.63748
C          C       0.78271   0.63518   0.86981
C          C       0.21729   0.63518   0.63019
C          C       0.76439   0.79178   0.88979
C          C       0.23561   0.79178   0.61021
C          C       0.79274   0.00732   0.90208
C          C       0.20726   0.00732   0.59792
C          C       0.83815   0.07422   0.89393
C          C       0.16185   0.07422   0.60607
C          C       0.71512   0.72928   0.89819
C          C       0.28488   0.72928   0.60181
C          C       0.84677   0.89679   0.98447
C          C       0.15323   0.89679   0.51553
C          C       0.02431   0.50942   0.78073
C          C       0.97569   0.50942   0.71927
C          C       0.99262   0.42603   0.76268
C          C       0.00738   0.42603   0.73732
C          C       0.55144   0.97209   0.98228
C          C       0.44856   0.97209   0.51772
C          C       0.54986   0.26695   0.51924
C          C       0.45014   0.26695   0.98076
C          C       0.52588   0.12430   0.50030
C          C       0.47412   0.12430   0.99970
H          H       0.62087   0.82875   0.96886
H          H       0.37913   0.82875   0.53114
H          H       0.84526   0.20944   0.51611
H          H       0.15474   0.20944   0.98389
H          H       0.74884   0.60433   0.95541
H          H       0.25116   0.60433   0.54459
H          H       0.83745   0.57559   0.95396
H          H       0.16255   0.57559   0.54604
H          H       0.67632   0.24615   0.56079
H          H       0.32368   0.24615   0.93921
H          H       0.68725   0.62336   0.54497
H          H       0.31275   0.62336   0.95502
H          H       0.73198   0.90951   0.56910
H          H       0.26802   0.90951   0.93090
H          H       0.77353   0.02799   0.60771
H          H       0.22647   0.02799   0.89229
H          H       0.86539   0.70632   0.57051
H          H       0.13461   0.70632   0.92949
H          H       0.81791   0.62727   0.53284
H          H       0.18209   0.62727   0.96716
H          H       0.85708   0.19830   0.62282
H          H       0.14292   0.19830   0.87718
H          H       0.82345   0.57399   0.62674
H          H       0.17655   0.57399   0.87326
H          H       0.88057   0.57647   0.61043
H          H       0.11943   0.57647   0.88957
H          H       0.88550   0.03881   0.94248
H          H       0.11450   0.03881   0.55752
H          H       0.03864   0.52931   0.81910
H          H       0.96136   0.52931   0.68090
H          H       0.92124   0.25887   0.75458
H          H       0.07876   0.25887   0.74542
H          H       0.87957   0.73707   0.81931
H          H       0.12043   0.73707   0.68069
H          H       0.84553   0.09394   0.82758
H          H       0.15447   0.09394   0.67242
H          H       0.91135   0.74916   0.91083
H          H       0.08865   0.74916   0.58917
H          H       0.03248   0.33715   0.93101
H          H       0.96752   0.33715   0.56899
H          H       0.04676   0.46497   0.88769
H          H       0.95324   0.46497   0.61232
H          H       0.84395   0.54531   0.84702
H          H       0.15605   0.54531   0.65298
H          H       0.75955   0.46306   0.85947
H          H       0.24045   0.46306   0.64053
H          H       0.77881   0.12903   0.91880
H          H       0.22119   0.12903   0.58120
H          H       0.86045   0.25969   0.90342
H          H       0.13955   0.25969   0.59657
H          H       0.71210   0.78947   0.91792
H          H       0.28790   0.78947   0.58208
H          H       0.70623   0.46812   0.89537
H          H       0.29377   0.46812   0.60463
H          H       0.68958   0.88274   0.88764
H          H       0.31042   0.88274   0.61236
H          H       0.05977   0.61798   0.77581
H          H       0.94023   0.61798   0.72419
H          H       0.53220   0.86107   0.96658
H          H       0.46780   0.86107   0.53342
H          H       0.52934   0.39359   0.53390
H          H       0.47066   0.39359   0.96610
C          C       0.95766   0.86247   0.53931
C          C       0.04234   0.86247   0.96069
H          H       0.88559   0.78680   0.52752
H          H       0.11441   0.78680   0.97248
H          H       0.94770   0.83492   0.55888
H          H       0.05230   0.83492   0.94112
