data_crystal

_cell_length_a    43.43000
_cell_length_b    43.43000
_cell_length_c    8.34600
_cell_angle_alpha 90.00000
_cell_angle_beta  90.00000
_cell_angle_gamma 120.00000

_space_group_name_Hall 'P 1'
_space_group_name_H-M_alt 'P 1'

loop_
_symmetry_equiv_pos_as_xyz
 'x,y,z'

loop_
_atom_site_label
_atom_site_type_symbol
_atom_site_fract_x
_atom_site_fract_y
_atom_site_fract_z
C          C       0.01889   0.98178   0.38936
C          C       0.01822   0.03711   0.38936
C          C       0.96289   0.98111   0.38936
C          C       0.03764   0.01912   0.38666
C          C       0.98088   0.01852   0.38666
C          C       0.98148   0.96236   0.38666
C          C       0.29367   0.18239   0.02010
C          C       0.81761   0.11128   0.02010
C          C       0.88872   0.70633   0.02010
C          C       0.25832   0.16845   0.06804
C          C       0.83155   0.08987   0.06804
C          C       0.91013   0.74168   0.06804
C          C       0.24225   0.13834   0.16753
C          C       0.86166   0.10391   0.16753
C          C       0.89609   0.75775   0.16753
C          C       0.26195   0.12262   0.21923
C          C       0.87738   0.13933   0.21923
C          C       0.86067   0.73805   0.21923
C          C       0.29734   0.13682   0.17205
C          C       0.86318   0.16052   0.17205
C          C       0.83948   0.70266   0.17205
O          O       0.23844   0.18304   0.00507
O          O       0.81696   0.05540   0.00507
O          O       0.94460   0.76156   0.00507
C          C       0.20968   0.17926   0.10322
C          C       0.82074   0.03042   0.10322
C          C       0.96958   0.79032   0.10322
C          C       0.18667   0.14160   0.16443
C          C       0.85840   0.04507   0.16443
C          C       0.95493   0.81333   0.16443
C          C       0.20425   0.12306   0.20699
C          C       0.87694   0.08119   0.20699
C          C       0.91881   0.79575   0.20699
C          C       0.13111   0.09085   0.25907
C          C       0.90915   0.04026   0.25907
C          C       0.95974   0.86889   0.25907
C          C       0.15106   0.07514   0.31155
C          C       0.92486   0.07592   0.31155
C          C       0.92408   0.84894   0.31155
N          N       0.18637   0.09119   0.28191
N          N       0.90881   0.09518   0.28191
N          N       0.90482   0.81363   0.28191
C          C       0.09394   0.07138   0.28086
C          C       0.92862   0.02256   0.28086
C          C       0.97744   0.90606   0.28086
C          C       0.07719   0.03907   0.36625
C          C       0.96093   0.03812   0.36625
C          C       0.96188   0.92281   0.36625
C          C       0.09833   0.02560   0.42651
C          C       0.97440   0.07273   0.42651
C          C       0.92727   0.90167   0.42651
C          C       0.13472   0.04302   0.39564
C          C       0.95698   0.09170   0.39564
C          C       0.90830   0.86528   0.39564
C          C       0.14942   0.12575   0.19117
C          C       0.87425   0.02367   0.19117
C          C       0.97633   0.85058   0.19117
C          C       0.13106   0.14683   0.16287
C          C       0.85317   0.98423   0.16287
C          C       0.01577   0.86894   0.16287
C          C       0.14301   0.17969   0.23991
C          C       0.82031   0.96332   0.23991
C          C       0.03668   0.85699   0.23991
C          C       0.12575   0.19922   0.21676
C          C       0.80078   0.92653   0.21676
C          C       0.07347   0.87425   0.21676
C          C       0.09571   0.18597   0.11789
C          C       0.81403   0.90974   0.11789
C          C       0.09026   0.90429   0.11789
C          C       0.08373   0.15344   0.03988
C          C       0.84656   0.93029   0.03988
C          C       0.06971   0.91627   0.03988
C          C       0.10163   0.13450   0.06019
C          C       0.86550   0.96713   0.06019
C          C       0.03287   0.89837   0.06019
C          C       0.07631   0.20610   0.09489
C          C       0.79390   0.87021   0.09489
C          C       0.12979   0.92369   0.09489
C          C       0.40926   0.23271   0.46368
C          C       0.76729   0.17655   0.46368
C          C       0.82345   0.59074   0.46368
C          C       0.39922   0.17308   0.42413
C          C       0.82692   0.22614   0.42413
C          C       0.77386   0.60078   0.42413
C          C       0.42208   0.20995   0.41958
C          C       0.79005   0.21213   0.41958
C          C       0.78787   0.57792   0.41958
O          O       0.41135   0.14940   0.38882
O          O       0.85060   0.26195   0.38882
O          O       0.73805   0.58865   0.38882
C          C       0.44283   0.16179   0.29328
C          C       0.83821   0.28104   0.29328
C          C       0.71896   0.55717   0.29328
C          C       0.47067   0.20079   0.31492
C          C       0.79921   0.26988   0.31492
C          C       0.73012   0.52933   0.31492
C          C       0.45947   0.22387   0.37450
C          C       0.77613   0.23560   0.37450
C          C       0.76440   0.54053   0.37450
C          C       0.50710   0.21505   0.27014
C          C       0.78495   0.29205   0.27014
C          C       0.70795   0.49290   0.27014
C          C       0.53027   0.25249   0.28192
C          C       0.74751   0.27778   0.28192
C          C       0.72222   0.46973   0.28192
C          C       0.51786   0.27343   0.35537
C          C       0.72657   0.24443   0.35537
C          C       0.75557   0.48214   0.35537
N          N       0.48327   0.25882   0.39683
N          N       0.74118   0.22445   0.39683
N          N       0.77555   0.51673   0.39683
C          C       0.56572   0.26953   0.22693
C          C       0.73047   0.29619   0.22693
C          C       0.70381   0.43428   0.22693
C          C       0.59027   0.30468   0.27259
C          C       0.69532   0.28559   0.27259
C          C       0.71441   0.40973   0.27259
C          C       0.57738   0.32421   0.35564
C          C       0.67579   0.25317   0.35564
C          C       0.74683   0.42262   0.35564
C          C       0.54129   0.30913   0.39021
C          C       0.69087   0.23216   0.39021
C          C       0.76784   0.45871   0.39021
C          C       0.62938   0.31943   0.24837
C          C       0.68057   0.30995   0.24837
C          C       0.69005   0.37062   0.24837
C          C       0.64368   0.29662   0.24595
C          C       0.70338   0.34706   0.24595
C          C       0.65294   0.35632   0.24595
C          C       0.52228   0.19132   0.23496
C          C       0.80868   0.33096   0.23496
C          C       0.66904   0.47772   0.23496
C          C       0.50629   0.16320   0.12484
C          C       0.83680   0.34309   0.12484
C          C       0.65691   0.49371   0.12484
C          C       0.51975   0.14030   0.10026
C          C       0.85970   0.37945   0.10026
C          C       0.62055   0.48025   0.10026
C          C       0.55077   0.14627   0.17867
C          C       0.85373   0.40450   0.17867
C          C       0.59550   0.44923   0.17867
C          C       0.56773   0.17499   0.28456
C          C       0.82501   0.39274   0.28456
C          C       0.60726   0.43227   0.28456
C          C       0.55317   0.19668   0.31529
C          C       0.80332   0.35649   0.31529
C          C       0.64351   0.44683   0.31529
C          C       0.56540   0.12199   0.14863
C          C       0.87801   0.44341   0.14863
C          C       0.55659   0.43460   0.14863
C          C       0.37404   0.21874   0.01298
C          C       0.78126   0.15530   0.01298
C          C       0.84470   0.62596   0.01298
C          C       0.35110   0.18180   0.02039
C          C       0.81820   0.16930   0.02039
C          C       0.83070   0.64890   0.02039
C          C       0.36417   0.15919   0.47680
C          C       0.84081   0.20498   0.47680
C          C       0.79502   0.63583   0.47680
C          C       0.31364   0.16693   0.07243
C          C       0.83307   0.14671   0.07243
C          C       0.85329   0.68636   0.07243
H          H       0.03358   0.96781   0.38783
H          H       0.03219   0.06577   0.38783
H          H       0.93423   0.96642   0.38783
H          H       0.30520   0.20484   0.43884
H          H       0.79516   0.10036   0.43884
H          H       0.89964   0.69480   0.43884
H          H       0.25006   0.09941   0.29594
H          H       0.90059   0.15065   0.29594
H          H       0.84935   0.74994   0.29594
H          H       0.31206   0.12439   0.21457
H          H       0.87561   0.18767   0.21457
H          H       0.81233   0.68794   0.21457
H          H       0.19410   0.18809   0.03247
H          H       0.81191   0.00601   0.03247
H          H       0.99399   0.80590   0.03247
H          H       0.22089   0.19737   0.20772
H          H       0.80263   0.02352   0.20772
H          H       0.97648   0.77911   0.20772
H          H       0.07758   0.08124   0.23400
H          H       0.91876   0.99634   0.23400
H          H       0.00366   0.92242   0.23400
H          H       0.08692   0.00158   0.49770
H          H       0.99842   0.08534   0.49770
H          H       0.91466   0.91308   0.49770
H          H       0.15040   0.03172   0.43966
H          H       0.96828   0.11868   0.43966
H          H       0.88132   0.84960   0.43966
H          H       0.16559   0.19026   0.31896
H          H       0.80974   0.97533   0.31896
H          H       0.02467   0.83441   0.31896
H          H       0.13552   0.22436   0.27831
H          H       0.77564   0.91116   0.27831
H          H       0.08884   0.86448   0.27831
H          H       0.06075   0.14290   0.46183
H          H       0.85710   0.91785   0.46183
H          H       0.08215   0.93925   0.46183
H          H       0.09185   0.10974   0.49861
H          H       0.89026   0.98211   0.49861
H          H       0.01789   0.90815   0.49861
H          H       0.04847   0.18971   0.13734
H          H       0.81029   0.85876   0.13734
H          H       0.14124   0.95153   0.13734
H          H       0.07611   0.21219   0.46588
H          H       0.78781   0.86392   0.46588
H          H       0.13608   0.92389   0.46588
H          H       0.08910   0.23153   0.16257
H          H       0.76847   0.85757   0.16257
H          H       0.14243   0.91090   0.16257
H          H       0.42645   0.26129   0.46125
H          H       0.73871   0.16516   0.46125
H          H       0.83484   0.57355   0.46125
H          H       0.43476   0.15729   0.16630
H          H       0.84271   0.27747   0.16630
H          H       0.72253   0.56524   0.16630
H          H       0.45400   0.14452   0.32264
H          H       0.85548   0.30948   0.32264
H          H       0.69052   0.54600   0.32264
H          H       0.57444   0.25513   0.15170
H          H       0.74487   0.31931   0.15170
H          H       0.68069   0.42556   0.15170
H          H       0.59496   0.35084   0.39881
H          H       0.64916   0.24412   0.39881
H          H       0.75588   0.40504   0.39881
H          H       0.53187   0.32480   0.45180
H          H       0.67520   0.20707   0.45180
H          H       0.79293   0.46813   0.45180
H          H       0.62607   0.26827   0.24939
H          H       0.73173   0.35780   0.24939
H          H       0.64220   0.37393   0.24939
H          H       0.48344   0.15890   0.05726
H          H       0.84110   0.32454   0.05726
H          H       0.67546   0.51656   0.05726
H          H       0.50655   0.11850   0.01630
H          H       0.88150   0.38805   0.01630
H          H       0.61195   0.49345   0.01630
H          H       0.59167   0.18005   0.34707
H          H       0.81995   0.41162   0.34707
H          H       0.58838   0.40833   0.34707
H          H       0.56591   0.21751   0.40397
H          H       0.78249   0.34840   0.40397
H          H       0.65160   0.43409   0.40397
H          H       0.57116   0.12197   0.01915
H          H       0.87803   0.44919   0.01915
H          H       0.55081   0.42884   0.01915
H          H       0.54559   0.09455   0.18591
H          H       0.90545   0.45104   0.18591
H          H       0.54896   0.45441   0.18591
H          H       0.59038   0.13051   0.21660
H          H       0.86949   0.45987   0.21660
H          H       0.54013   0.40962   0.21660
H          H       0.36493   0.23684   0.04818
H          H       0.76316   0.12809   0.04818
H          H       0.87191   0.63507   0.04818
H          H       0.34700   0.13061   0.48096
H          H       0.86939   0.21639   0.48096
H          H       0.78361   0.65300   0.48096
C          C       0.01889   0.98178   0.88935
C          C       0.01822   0.03711   0.88935
C          C       0.96289   0.98111   0.88935
C          C       0.03764   0.01912   0.88666
C          C       0.98088   0.01852   0.88666
C          C       0.98148   0.96236   0.88666
C          C       0.29367   0.18239   0.52010
C          C       0.81761   0.11128   0.52010
C          C       0.88872   0.70633   0.52010
C          C       0.25832   0.16845   0.56805
C          C       0.83155   0.08987   0.56805
C          C       0.91013   0.74168   0.56805
C          C       0.24225   0.13834   0.66753
C          C       0.86166   0.10391   0.66753
C          C       0.89609   0.75775   0.66753
C          C       0.26195   0.12262   0.71923
C          C       0.87738   0.13933   0.71923
C          C       0.86067   0.73805   0.71923
C          C       0.29734   0.13682   0.67205
C          C       0.86318   0.16052   0.67205
C          C       0.83948   0.70266   0.67205
O          O       0.23844   0.18304   0.50508
O          O       0.81696   0.05540   0.50508
O          O       0.94460   0.76156   0.50508
C          C       0.20968   0.17926   0.60323
C          C       0.82074   0.03042   0.60323
C          C       0.96958   0.79032   0.60323
C          C       0.18667   0.14160   0.66443
C          C       0.85840   0.04507   0.66443
C          C       0.95493   0.81333   0.66443
C          C       0.20425   0.12306   0.70699
C          C       0.87694   0.08119   0.70699
C          C       0.91881   0.79575   0.70699
C          C       0.13111   0.09085   0.75907
C          C       0.90915   0.04026   0.75907
C          C       0.95974   0.86889   0.75907
C          C       0.15106   0.07514   0.81155
C          C       0.92486   0.07592   0.81155
C          C       0.92408   0.84894   0.81155
N          N       0.18637   0.09119   0.78191
N          N       0.90881   0.09518   0.78191
N          N       0.90482   0.81363   0.78191
C          C       0.09394   0.07138   0.78086
C          C       0.92862   0.02256   0.78086
C          C       0.97744   0.90606   0.78086
C          C       0.07719   0.03907   0.86625
C          C       0.96093   0.03812   0.86625
C          C       0.96188   0.92281   0.86625
C          C       0.09833   0.02560   0.92651
C          C       0.97440   0.07273   0.92651
C          C       0.92727   0.90167   0.92651
C          C       0.13472   0.04302   0.89564
C          C       0.95698   0.09170   0.89564
C          C       0.90830   0.86528   0.89564
C          C       0.14942   0.12575   0.69117
C          C       0.87425   0.02367   0.69117
C          C       0.97633   0.85058   0.69117
C          C       0.13106   0.14683   0.66287
C          C       0.85317   0.98423   0.66287
C          C       0.01577   0.86894   0.66287
C          C       0.14301   0.17969   0.73991
C          C       0.82031   0.96332   0.73991
C          C       0.03668   0.85699   0.73991
C          C       0.12575   0.19922   0.71675
C          C       0.80078   0.92653   0.71675
C          C       0.07347   0.87425   0.71675
C          C       0.09571   0.18597   0.61789
C          C       0.81403   0.90974   0.61789
C          C       0.09026   0.90429   0.61789
C          C       0.08373   0.15344   0.53988
C          C       0.84656   0.93029   0.53988
C          C       0.06971   0.91627   0.53988
C          C       0.10163   0.13450   0.56018
C          C       0.86550   0.96713   0.56018
C          C       0.03287   0.89837   0.56018
C          C       0.07631   0.20610   0.59489
C          C       0.79390   0.87021   0.59489
C          C       0.12979   0.92369   0.59489
C          C       0.40926   0.23271   0.96368
C          C       0.76729   0.17655   0.96368
C          C       0.82345   0.59074   0.96368
C          C       0.39922   0.17308   0.92414
C          C       0.82692   0.22614   0.92414
C          C       0.77386   0.60078   0.92414
C          C       0.42208   0.20995   0.91958
C          C       0.79005   0.21213   0.91958
C          C       0.78787   0.57792   0.91958
O          O       0.41135   0.14940   0.88882
O          O       0.85060   0.26195   0.88882
O          O       0.73805   0.58865   0.88882
C          C       0.44283   0.16179   0.79328
C          C       0.83821   0.28104   0.79328
C          C       0.71896   0.55717   0.79328
C          C       0.47067   0.20079   0.81492
C          C       0.79921   0.26988   0.81492
C          C       0.73012   0.52933   0.81492
C          C       0.45947   0.22387   0.87450
C          C       0.77613   0.23560   0.87450
C          C       0.76440   0.54053   0.87450
C          C       0.50710   0.21505   0.77014
C          C       0.78495   0.29205   0.77014
C          C       0.70795   0.49290   0.77014
C          C       0.53027   0.25249   0.78192
C          C       0.74751   0.27778   0.78192
C          C       0.72222   0.46973   0.78192
C          C       0.51786   0.27343   0.85537
C          C       0.72657   0.24443   0.85537
C          C       0.75557   0.48214   0.85537
N          N       0.48327   0.25882   0.89683
N          N       0.74118   0.22445   0.89683
N          N       0.77555   0.51673   0.89683
C          C       0.56572   0.26953   0.72693
C          C       0.73047   0.29619   0.72693
C          C       0.70381   0.43428   0.72693
C          C       0.59027   0.30468   0.77259
C          C       0.69532   0.28559   0.77259
C          C       0.71441   0.40973   0.77259
C          C       0.57738   0.32421   0.85564
C          C       0.67579   0.25317   0.85564
C          C       0.74683   0.42262   0.85564
C          C       0.54129   0.30913   0.89021
C          C       0.69087   0.23216   0.89021
C          C       0.76784   0.45871   0.89021
C          C       0.62938   0.31943   0.74837
C          C       0.68057   0.30995   0.74837
C          C       0.69005   0.37062   0.74837
C          C       0.64368   0.29662   0.74595
C          C       0.70338   0.34706   0.74595
C          C       0.65294   0.35632   0.74595
C          C       0.52228   0.19132   0.73496
C          C       0.80868   0.33096   0.73496
C          C       0.66904   0.47772   0.73496
C          C       0.50629   0.16320   0.62484
C          C       0.83680   0.34309   0.62484
C          C       0.65691   0.49371   0.62484
C          C       0.51975   0.14030   0.60027
C          C       0.85970   0.37945   0.60027
C          C       0.62055   0.48025   0.60027
C          C       0.55077   0.14627   0.67866
C          C       0.85373   0.40450   0.67866
C          C       0.59550   0.44923   0.67866
C          C       0.56773   0.17499   0.78456
C          C       0.82501   0.39274   0.78456
C          C       0.60726   0.43227   0.78456
C          C       0.55317   0.19668   0.81529
C          C       0.80332   0.35649   0.81529
C          C       0.64351   0.44683   0.81529
C          C       0.56540   0.12199   0.64863
C          C       0.87801   0.44341   0.64863
C          C       0.55659   0.43460   0.64863
C          C       0.37404   0.21874   0.51298
C          C       0.78126   0.15530   0.51298
C          C       0.84470   0.62596   0.51298
C          C       0.35110   0.18180   0.52039
C          C       0.81820   0.16930   0.52039
C          C       0.83070   0.64890   0.52039
C          C       0.36417   0.15919   0.97680
C          C       0.84081   0.20498   0.97680
C          C       0.79502   0.63583   0.97680
C          C       0.31364   0.16693   0.57244
C          C       0.83307   0.14671   0.57244
C          C       0.85329   0.68636   0.57244
H          H       0.03358   0.96781   0.88784
H          H       0.03219   0.06577   0.88784
H          H       0.93423   0.96642   0.88784
H          H       0.30520   0.20484   0.93884
H          H       0.79516   0.10036   0.93884
H          H       0.89964   0.69480   0.93884
H          H       0.25006   0.09941   0.79594
H          H       0.90059   0.15065   0.79594
H          H       0.84935   0.74994   0.79594
H          H       0.31206   0.12439   0.71457
H          H       0.87561   0.18767   0.71457
H          H       0.81233   0.68794   0.71457
H          H       0.19410   0.18809   0.53247
H          H       0.81191   0.00601   0.53247
H          H       0.99399   0.80590   0.53247
H          H       0.22089   0.19737   0.70772
H          H       0.80263   0.02352   0.70772
H          H       0.97648   0.77911   0.70772
H          H       0.07758   0.08124   0.73400
H          H       0.91876   0.99634   0.73400
H          H       0.00366   0.92242   0.73400
H          H       0.08692   0.00158   0.99770
H          H       0.99842   0.08534   0.99770
H          H       0.91466   0.91308   0.99770
H          H       0.15040   0.03172   0.93966
H          H       0.96828   0.11868   0.93966
H          H       0.88132   0.84960   0.93966
H          H       0.16559   0.19026   0.81896
H          H       0.80974   0.97533   0.81896
H          H       0.02467   0.83441   0.81896
H          H       0.13552   0.22436   0.77831
H          H       0.77564   0.91116   0.77831
H          H       0.08884   0.86448   0.77831
H          H       0.06075   0.14290   0.96183
H          H       0.85710   0.91785   0.96183
H          H       0.08215   0.93925   0.96183
H          H       0.09185   0.10974   0.99861
H          H       0.89026   0.98211   0.99861
H          H       0.01789   0.90815   0.99861
H          H       0.04847   0.18971   0.63733
H          H       0.81029   0.85876   0.63733
H          H       0.14124   0.95153   0.63733
H          H       0.07611   0.21219   0.96588
H          H       0.78781   0.86392   0.96588
H          H       0.13608   0.92389   0.96588
H          H       0.08910   0.23153   0.66258
H          H       0.76847   0.85757   0.66258
H          H       0.14243   0.91090   0.66258
H          H       0.42645   0.26129   0.96125
H          H       0.73871   0.16516   0.96125
H          H       0.83484   0.57355   0.96125
H          H       0.43476   0.15729   0.66630
H          H       0.84271   0.27747   0.66630
H          H       0.72253   0.56524   0.66630
H          H       0.45400   0.14452   0.82264
H          H       0.85548   0.30948   0.82264
H          H       0.69052   0.54600   0.82264
H          H       0.57444   0.25513   0.65170
H          H       0.74487   0.31931   0.65170
H          H       0.68069   0.42556   0.65170
H          H       0.59496   0.35084   0.89881
H          H       0.64916   0.24412   0.89881
H          H       0.75588   0.40504   0.89881
H          H       0.53187   0.32480   0.95180
H          H       0.67520   0.20707   0.95180
H          H       0.79293   0.46813   0.95180
H          H       0.62607   0.26827   0.74938
H          H       0.73173   0.35780   0.74938
H          H       0.64220   0.37393   0.74938
H          H       0.48344   0.15890   0.55725
H          H       0.84110   0.32454   0.55725
H          H       0.67546   0.51656   0.55725
H          H       0.50655   0.11850   0.51630
H          H       0.88150   0.38805   0.51630
H          H       0.61195   0.49345   0.51630
H          H       0.59167   0.18005   0.84707
H          H       0.81995   0.41162   0.84707
H          H       0.58838   0.40833   0.84707
H          H       0.56591   0.21751   0.90397
H          H       0.78249   0.34840   0.90397
H          H       0.65160   0.43409   0.90397
H          H       0.57116   0.12197   0.51914
H          H       0.87803   0.44919   0.51914
H          H       0.55081   0.42884   0.51914
H          H       0.54559   0.09455   0.68591
H          H       0.90545   0.45104   0.68591
H          H       0.54896   0.45441   0.68591
H          H       0.59038   0.13051   0.71660
H          H       0.86949   0.45987   0.71660
H          H       0.54013   0.40962   0.71660
H          H       0.36493   0.23684   0.54819
H          H       0.76316   0.12809   0.54819
H          H       0.87191   0.63507   0.54819
H          H       0.34700   0.13061   0.98096
H          H       0.86939   0.21639   0.98096
H          H       0.78361   0.65300   0.98096
