data_crystal

_cell_length_a    20.95660
_cell_length_b    3.50000
_cell_length_c    42.69940
_cell_angle_alpha 90.00000
_cell_angle_beta  60.00000
_cell_angle_gamma 90.00000

_space_group_name_Hall 'P 1'
_space_group_name_H-M_alt 'P 1'

loop_
_symmetry_equiv_pos_as_xyz
 'x,y,z'

loop_
_atom_site_label
_atom_site_type_symbol
_atom_site_fract_x
_atom_site_fract_y
_atom_site_fract_z
C          C       0.33379   0.90641   0.16576
C          C       0.66621   0.90641   0.33424
N          N       0.32446   0.89465   0.19970
N          N       0.67554   0.89465   0.30029
N          N       0.27496   0.97049   0.16100
N          N       0.72504   0.97049   0.33900
N          N       0.40188   0.85435   0.13665
N          N       0.59812   0.85435   0.36335
N          N       0.38452   0.84987   0.20538
N          N       0.61548   0.84987   0.29462
N          N       0.20459   0.02382   0.19073
N          N       0.79541   0.02382   0.30927
N          N       0.41235   0.84343   0.10156
N          N       0.58765   0.84343   0.39844
C          C       0.14764   0.09689   0.18744
C          C       0.85236   0.09689   0.31256
C          C       0.37676   0.83086   0.23737
C          C       0.62324   0.83086   0.26263
C          C       0.47652   0.79404   0.07353
C          C       0.52348   0.79404   0.42647
H          H       0.15353   0.11558   0.16080
H          H       0.84647   0.11558   0.33920
H          H       0.32220   0.84663   0.26070
H          H       0.67780   0.84663   0.23930
H          H       0.52423   0.76625   0.07697
H          H       0.47577   0.76625   0.42303
C          C       0.55820   0.78069   0.00761
C          C       0.44180   0.78069   0.49239
C          C       0.48649   0.78025   0.03670
C          C       0.51351   0.78025   0.46330
C          C       0.42691   0.76236   0.03018
C          C       0.57309   0.76236   0.46982
O          O       0.35470   0.75929   0.05948
O          O       0.64530   0.75929   0.44051
C          C       0.42794   0.79822   0.27842
C          C       0.57206   0.79822   0.22158
C          C       0.44100   0.80106   0.24290
C          C       0.55900   0.80106   0.25710
C          C       0.51393   0.78527   0.21401
C          C       0.48607   0.78527   0.28599
O          O       0.52697   0.79391   0.17832
O          O       0.47303   0.79391   0.32168
C          C       0.01308   0.14046   0.21430
C          C       0.98692   0.14046   0.28570
C          C       0.07380   0.13540   0.21955
C          C       0.92620   0.13540   0.28045
C          C       0.06297   0.16075   0.25479
C          C       0.93703   0.16075   0.24521
O          O       0.12424   0.17079   0.26004
O          O       0.87576   0.17079   0.23997
H          H       0.60369   0.80485   0.01277
H          H       0.39631   0.80485   0.48723
H          H       0.37193   0.81863   0.30034
H          H       0.62807   0.81863   0.19966
H          H       0.02158   0.11303   0.18727
H          H       0.97842   0.11303   0.31273
C          C       0.29934   0.57205   0.05482
C          C       0.70066   0.57205   0.44518
C          C       0.59020   0.59980   0.15105
C          C       0.40980   0.59980   0.34896
C          C       0.11597   0.35401   0.29175
C          C       0.88403   0.35401   0.20825
H          H       0.32227   0.37793   0.03121
H          H       0.67773   0.37793   0.46880
H          H       0.26344   0.78540   0.05205
H          H       0.73656   0.78540   0.44795
H          H       0.26478   0.40008   0.07928
H          H       0.73522   0.40008   0.42072
H          H       0.63188   0.80938   0.13309
H          H       0.36812   0.80938   0.36691
H          H       0.57335   0.42958   0.13445
H          H       0.42665   0.42958   0.36555
H          H       0.61555   0.40336   0.16217
H          H       0.38445   0.40336   0.33783
H          H       0.11056   0.13855   0.31190
H          H       0.88944   0.13855   0.18810
H          H       0.06813   0.54965   0.30421
H          H       0.93187   0.54965   0.19579
H          H       0.16620   0.52339   0.28431
H          H       0.83380   0.52339   0.21569
Cl         Cl      0.90610   0.62102   0.38119
Cl         Cl      0.09390   0.62102   0.11881
H          H       0.44726   0.81180   0.14020
H          H       0.55274   0.81180   0.35979
H          H       0.27216   0.92511   0.22215
H          H       0.72784   0.92511   0.27785
H          H       0.28161   0.98418   0.13509
H          H       0.71839   0.98418   0.36491
C          C       0.33379   0.90641   0.66576
C          C       0.66621   0.90641   0.83424
N          N       0.32446   0.89465   0.69971
N          N       0.67554   0.89465   0.80029
N          N       0.27496   0.97049   0.66100
N          N       0.72504   0.97049   0.83900
N          N       0.40188   0.85435   0.63665
N          N       0.59812   0.85435   0.86335
N          N       0.38452   0.84987   0.70538
N          N       0.61548   0.84987   0.79462
N          N       0.20459   0.02382   0.69073
N          N       0.79541   0.02382   0.80927
N          N       0.41235   0.84343   0.60156
N          N       0.58765   0.84343   0.89844
C          C       0.14764   0.09689   0.68744
C          C       0.85236   0.09689   0.81256
C          C       0.37676   0.83086   0.73737
C          C       0.62324   0.83086   0.76263
C          C       0.47652   0.79404   0.57353
C          C       0.52348   0.79404   0.92647
H          H       0.15353   0.11558   0.66080
H          H       0.84647   0.11558   0.83920
H          H       0.32220   0.84663   0.76070
H          H       0.67780   0.84663   0.73930
H          H       0.52423   0.76625   0.57696
H          H       0.47577   0.76625   0.92303
C          C       0.55820   0.78069   0.50762
C          C       0.44180   0.78069   0.99238
C          C       0.48649   0.78025   0.53670
C          C       0.51351   0.78025   0.96330
C          C       0.42691   0.76236   0.53018
C          C       0.57309   0.76236   0.96983
O          O       0.35470   0.75929   0.55948
O          O       0.64530   0.75929   0.94051
C          C       0.42794   0.79822   0.77841
C          C       0.57206   0.79822   0.72159
C          C       0.44100   0.80106   0.74290
C          C       0.55900   0.80106   0.75710
C          C       0.51393   0.78527   0.71401
C          C       0.48607   0.78527   0.78599
O          O       0.52697   0.79391   0.67832
O          O       0.47303   0.79391   0.82168
C          C       0.01308   0.14046   0.71430
C          C       0.98692   0.14046   0.78570
C          C       0.07380   0.13540   0.71955
C          C       0.92620   0.13540   0.78045
C          C       0.06297   0.16075   0.75479
C          C       0.93703   0.16075   0.74521
O          O       0.12424   0.17079   0.76004
O          O       0.87576   0.17079   0.73996
H          H       0.60369   0.80485   0.51277
H          H       0.39631   0.80485   0.98723
H          H       0.37193   0.81863   0.80034
H          H       0.62807   0.81863   0.69966
H          H       0.02158   0.11303   0.68727
H          H       0.97842   0.11303   0.81273
C          C       0.29934   0.57205   0.55482
C          C       0.70066   0.57205   0.94518
C          C       0.59020   0.59980   0.65104
C          C       0.40980   0.59980   0.84896
C          C       0.11597   0.35401   0.79175
C          C       0.88403   0.35401   0.70825
H          H       0.32227   0.37793   0.53121
H          H       0.67773   0.37793   0.96879
H          H       0.26344   0.78540   0.55205
H          H       0.73656   0.78540   0.94795
H          H       0.26478   0.40008   0.57929
H          H       0.73522   0.40008   0.92072
H          H       0.63188   0.80938   0.63310
H          H       0.36812   0.80938   0.86690
H          H       0.57335   0.42958   0.63445
H          H       0.42665   0.42958   0.86555
H          H       0.61555   0.40336   0.66217
H          H       0.38445   0.40336   0.83783
H          H       0.11056   0.13855   0.81190
H          H       0.88944   0.13855   0.68810
H          H       0.06813   0.54965   0.80421
H          H       0.93187   0.54965   0.69579
H          H       0.16620   0.52339   0.78431
H          H       0.83380   0.52339   0.71569
Cl         Cl      0.90610   0.62102   0.88119
Cl         Cl      0.09390   0.62102   0.61881
H          H       0.44726   0.81180   0.64021
H          H       0.55274   0.81180   0.85979
H          H       0.27216   0.92511   0.72215
H          H       0.72784   0.92511   0.77785
H          H       0.28161   0.98418   0.63510
H          H       0.71839   0.98418   0.86490
