data_crystal

_cell_length_a    34.65760
_cell_length_b    34.65760
_cell_length_c    9.06500
_cell_angle_alpha 90.00000
_cell_angle_beta  90.00000
_cell_angle_gamma 90.00000

_space_group_name_Hall 'P 1'
_space_group_name_H-M_alt 'P 1'

loop_
_symmetry_equiv_pos_as_xyz
 'x,y,z'

loop_
_atom_site_label
_atom_site_type_symbol
_atom_site_fract_x
_atom_site_fract_y
_atom_site_fract_z
H          H       0.02303   0.49164   0.28474
H          H       0.97697   0.50836   0.28474
H          H       0.50836   0.02303   0.28474
H          H       0.49164   0.97697   0.28474
C          C       0.91476   0.44729   0.26234
C          C       0.08524   0.55271   0.26234
C          C       0.55271   0.91476   0.26234
C          C       0.44729   0.08524   0.26234
N          N       0.15696   0.29171   0.36591
N          N       0.84304   0.70829   0.36591
N          N       0.70829   0.15696   0.36591
N          N       0.29171   0.84304   0.36591
C          C       0.12765   0.32031   0.34968
C          C       0.87235   0.67969   0.34968
C          C       0.67969   0.12765   0.34968
C          C       0.32031   0.87235   0.34968
C          C       0.06852   0.35008   0.43576
C          C       0.93148   0.64992   0.43576
C          C       0.64992   0.06852   0.43576
C          C       0.35008   0.93148   0.43576
C          C       0.09477   0.31951   0.43970
C          C       0.90523   0.68049   0.43970
C          C       0.68049   0.09477   0.43970
C          C       0.31951   0.90523   0.43970
N          N       0.98438   0.44170   0.31408
N          N       0.01562   0.55830   0.31408
N          N       0.55830   0.98438   0.31408
N          N       0.44170   0.01562   0.31408
C          C       0.30296   0.18293   0.20558
C          C       0.69704   0.81707   0.20558
C          C       0.81707   0.30296   0.20558
C          C       0.18293   0.69704   0.20558
C          C       0.27560   0.21502   0.25538
C          C       0.72440   0.78498   0.25538
C          C       0.78498   0.27560   0.25538
C          C       0.21502   0.72440   0.25538
C          C       0.28321   0.15045   0.13251
C          C       0.71679   0.84955   0.13251
C          C       0.84955   0.28321   0.13251
C          C       0.15045   0.71679   0.13251
C          C       0.26932   0.12228   0.07508
C          C       0.73068   0.87772   0.07508
C          C       0.87772   0.26932   0.07508
C          C       0.12228   0.73068   0.07508
C          C       0.25402   0.08787   0.00787
C          C       0.74598   0.91213   0.00787
C          C       0.91213   0.25402   0.00787
C          C       0.08787   0.74598   0.00787
C          C       0.21491   0.07852   0.02385
C          C       0.78509   0.92148   0.02385
C          C       0.92148   0.21491   0.02385
C          C       0.07852   0.78509   0.02385
C          C       0.20041   0.04443   0.46267
C          C       0.79959   0.95557   0.46267
C          C       0.95557   0.20041   0.46267
C          C       0.04443   0.79959   0.46267
C          C       0.22493   0.01947   0.38591
C          C       0.77507   0.98053   0.38591
C          C       0.98053   0.22493   0.38591
C          C       0.01947   0.77507   0.38591
C          C       0.26395   0.02869   0.36965
C          C       0.73605   0.97131   0.36965
C          C       0.97131   0.26395   0.36965
C          C       0.02869   0.73605   0.36965
C          C       0.27855   0.06282   0.43036
C          C       0.72145   0.93718   0.43036
C          C       0.93718   0.27855   0.43036
C          C       0.06282   0.72145   0.43036
C          C       0.21896   0.23120   0.40769
C          C       0.78104   0.76880   0.40769
C          C       0.76880   0.21896   0.40769
C          C       0.23120   0.78104   0.40769
O          O       0.18855   0.22114   0.00433
O          O       0.81145   0.77886   0.00433
O          O       0.77886   0.18855   0.00433
O          O       0.22114   0.81145   0.00433
C          C       0.17913   0.18153   0.02490
C          C       0.82087   0.81847   0.02490
C          C       0.81847   0.17913   0.02490
C          C       0.18153   0.82087   0.02490
C          C       0.38653   0.04607   0.25736
C          C       0.61347   0.95393   0.25736
C          C       0.95393   0.38653   0.25736
C          C       0.04607   0.61347   0.25736
C          C       0.37808   0.00800   0.27845
C          C       0.62192   0.99200   0.27845
C          C       0.99200   0.37808   0.27845
C          C       0.00800   0.62192   0.27845
C          C       0.41239   0.98980   0.31374
C          C       0.58761   0.01020   0.31374
C          C       0.01020   0.41239   0.31374
C          C       0.98980   0.58761   0.31374
C          C       0.42625   0.05006   0.27520
C          C       0.57375   0.94994   0.27520
C          C       0.94994   0.42625   0.27520
C          C       0.05006   0.57375   0.27520
C          C       0.24382   0.20392   0.34271
C          C       0.75618   0.79608   0.34271
C          C       0.79608   0.24382   0.34271
C          C       0.20392   0.75618   0.34271
H          H       0.14715   0.26325   0.36250
H          H       0.85285   0.73675   0.36250
H          H       0.73675   0.14715   0.36250
H          H       0.26325   0.85285   0.36250
H          H       0.04441   0.35040   0.01158
H          H       0.95559   0.64960   0.01158
H          H       0.64960   0.04441   0.01158
H          H       0.35040   0.95559   0.01158
H          H       0.09064   0.29632   0.01777
H          H       0.90936   0.70368   0.01777
H          H       0.70368   0.09064   0.01777
H          H       0.29632   0.90936   0.01777
H          H       0.19570   0.09727   0.08477
H          H       0.80430   0.90273   0.08477
H          H       0.90273   0.19570   0.08477
H          H       0.09727   0.80430   0.08477
H          H       0.17022   0.03722   0.47564
H          H       0.82978   0.96278   0.47564
H          H       0.96278   0.17022   0.47564
H          H       0.03722   0.82978   0.47564
H          H       0.21372   0.99298   0.33960
H          H       0.78628   0.00702   0.33960
H          H       0.00702   0.21372   0.33960
H          H       0.99298   0.78628   0.33960
H          H       0.28283   0.00922   0.31066
H          H       0.71717   0.99078   0.31066
H          H       0.99078   0.28283   0.31066
H          H       0.00922   0.71717   0.31066
H          H       0.30892   0.06950   0.41815
H          H       0.69108   0.93050   0.41815
H          H       0.93050   0.30892   0.41815
H          H       0.06950   0.69108   0.41815
H          H       0.20315   0.16640   0.08044
H          H       0.79685   0.83360   0.08044
H          H       0.83360   0.20315   0.08044
H          H       0.16640   0.79685   0.08044
H          H       0.17185   0.16772   0.41784
H          H       0.82815   0.83228   0.41784
H          H       0.83228   0.17185   0.41784
H          H       0.16772   0.82815   0.41784
H          H       0.15353   0.17962   0.09781
H          H       0.84647   0.82038   0.09781
H          H       0.82038   0.15353   0.09781
H          H       0.17962   0.84647   0.09781
H          H       0.23921   0.17353   0.36190
H          H       0.76079   0.82647   0.36190
H          H       0.82647   0.23921   0.36190
H          H       0.17353   0.76079   0.36190
C          C       0.54360   0.10780   0.38877
C          C       0.45640   0.89220   0.38877
C          C       0.89220   0.54360   0.38877
C          C       0.10780   0.45640   0.38877
C          C       0.50691   0.11904   0.35044
C          C       0.49309   0.88096   0.35044
C          C       0.88096   0.50691   0.35044
C          C       0.11904   0.49309   0.35044
N          N       0.51157   0.05424   0.30944
N          N       0.48843   0.94576   0.30944
N          N       0.94576   0.51157   0.30944
N          N       0.05424   0.48843   0.30944
C          C       0.54783   0.06901   0.35704
C          C       0.45217   0.93099   0.35704
C          C       0.93099   0.54783   0.35704
C          C       0.06901   0.45217   0.35704
C          C       0.08689   0.51344   0.30596
C          C       0.91311   0.48656   0.30596
C          C       0.48656   0.08689   0.30596
C          C       0.51344   0.91311   0.30596
C          C       0.05002   0.41617   0.34186
C          C       0.94998   0.58383   0.34186
C          C       0.58383   0.05002   0.34186
C          C       0.41617   0.94998   0.34186
C          C       0.42650   0.11995   0.20038
C          C       0.57350   0.88005   0.20038
C          C       0.88005   0.42650   0.20038
C          C       0.11995   0.57350   0.20038
C          C       0.07451   0.38090   0.33767
C          C       0.92549   0.61910   0.33767
C          C       0.61910   0.07451   0.33767
C          C       0.38090   0.92549   0.33767
C          C       0.42433   0.15597   0.27265
C          C       0.57567   0.84403   0.27265
C          C       0.84403   0.42433   0.27265
C          C       0.15597   0.57567   0.27265
C          C       0.39676   0.18336   0.23051
C          C       0.60324   0.81664   0.23051
C          C       0.81664   0.39676   0.23051
C          C       0.18336   0.60324   0.23051
C          C       0.37023   0.17472   0.11936
C          C       0.62977   0.82528   0.11936
C          C       0.82528   0.37023   0.11936
C          C       0.17472   0.62977   0.11936
C          C       0.37430   0.14061   0.03926
C          C       0.62570   0.85939   0.03926
C          C       0.85939   0.37430   0.03926
C          C       0.14061   0.62570   0.03926
C          C       0.40321   0.11451   0.07502
C          C       0.59679   0.88549   0.07502
C          C       0.88549   0.40321   0.07502
C          C       0.11451   0.59679   0.07502
C          C       0.13198   0.34952   0.24496
C          C       0.86802   0.65048   0.24496
C          C       0.65048   0.13198   0.24496
C          C       0.34952   0.86802   0.24496
C          C       0.10532   0.37928   0.23753
C          C       0.89468   0.62072   0.23753
C          C       0.62072   0.10532   0.23753
C          C       0.37928   0.89468   0.23753
N          N       0.33480   0.19565   0.11070
N          N       0.66520   0.80435   0.11070
N          N       0.80435   0.33480   0.11070
N          N       0.19565   0.66520   0.11070
C          C       0.19479   0.29959   0.43488
C          C       0.80521   0.70041   0.43488
C          C       0.70041   0.19479   0.43488
C          C       0.29959   0.80521   0.43488
C          C       0.22444   0.27063   0.37733
C          C       0.77556   0.72937   0.37733
C          C       0.72937   0.22444   0.37733
C          C       0.27063   0.77556   0.37733
C          C       0.20668   0.34026   0.41236
C          C       0.79332   0.65974   0.41236
C          C       0.65974   0.20668   0.41236
C          C       0.34026   0.79332   0.41236
C          C       0.28322   0.25497   0.23629
C          C       0.71678   0.74503   0.23629
C          C       0.74503   0.28322   0.23629
C          C       0.25497   0.71678   0.23629
C          C       0.25669   0.28200   0.29326
C          C       0.74331   0.71800   0.29326
C          C       0.71800   0.25669   0.29326
C          C       0.28200   0.74331   0.29326
O          O       0.31763   0.26655   0.16537
O          O       0.68237   0.73345   0.16537
O          O       0.73345   0.31763   0.16537
O          O       0.26655   0.68237   0.16537
C          C       0.21654   0.37296   0.38654
C          C       0.78346   0.62704   0.38654
C          C       0.62704   0.21654   0.38654
C          C       0.37296   0.78346   0.38654
C          C       0.22860   0.41140   0.34757
C          C       0.77140   0.58860   0.34757
C          C       0.58860   0.22860   0.34757
C          C       0.41140   0.77140   0.34757
C          C       0.26448   0.42535   0.39469
C          C       0.73552   0.57465   0.39469
C          C       0.57465   0.26448   0.39469
C          C       0.42535   0.73552   0.39469
C          C       0.27713   0.46182   0.34947
C          C       0.72287   0.53818   0.34947
C          C       0.53818   0.27713   0.34947
C          C       0.46182   0.72287   0.34947
C          C       0.25399   0.48446   0.25731
C          C       0.74601   0.51554   0.25731
C          C       0.51554   0.25399   0.25731
C          C       0.48446   0.74601   0.25731
C          C       0.21818   0.47063   0.21020
C          C       0.78182   0.52937   0.21020
C          C       0.52937   0.21818   0.21020
C          C       0.47063   0.78182   0.21020
C          C       0.20551   0.43414   0.25488
C          C       0.79449   0.56586   0.25488
C          C       0.56586   0.20551   0.25488
C          C       0.43414   0.79449   0.25488
C          C       0.32659   0.30667   0.15371
C          C       0.67341   0.69333   0.15371
C          C       0.69333   0.32659   0.15371
C          C       0.30667   0.67341   0.15371
H          H       0.39344   0.20943   0.29441
H          H       0.60656   0.79057   0.29441
H          H       0.79057   0.39344   0.29441
H          H       0.20943   0.60656   0.29441
H          H       0.15632   0.34965   0.17105
H          H       0.84368   0.65035   0.17105
H          H       0.65035   0.15632   0.17105
H          H       0.34965   0.84368   0.17105
H          H       0.10949   0.40206   0.15766
H          H       0.89051   0.59794   0.15766
H          H       0.59794   0.10949   0.15766
H          H       0.40206   0.89051   0.15766
H          H       0.32811   0.20894   0.01054
H          H       0.67189   0.79106   0.01054
H          H       0.79106   0.32811   0.01054
H          H       0.20894   0.67189   0.01054
H          H       0.26144   0.31224   0.27353
H          H       0.73856   0.68776   0.27353
H          H       0.68776   0.26144   0.27353
H          H       0.31224   0.73856   0.27353
H          H       0.28282   0.40789   0.46468
H          H       0.71718   0.59211   0.46468
H          H       0.59211   0.28282   0.46468
H          H       0.40789   0.71718   0.46468
H          H       0.30500   0.47241   0.38490
H          H       0.69500   0.52759   0.38490
H          H       0.52759   0.30500   0.38490
H          H       0.47241   0.69500   0.38490
H          H       0.26392   0.51256   0.22168
H          H       0.73608   0.48744   0.22168
H          H       0.48744   0.26392   0.22168
H          H       0.51256   0.73608   0.22168
H          H       0.20037   0.48806   0.13812
H          H       0.79963   0.51194   0.13812
H          H       0.51194   0.20037   0.13812
H          H       0.48806   0.79963   0.13812
H          H       0.17800   0.42357   0.21562
H          H       0.82200   0.57643   0.21562
H          H       0.57643   0.17800   0.21562
H          H       0.42357   0.82200   0.21562
H          H       0.30482   0.32169   0.08449
H          H       0.69518   0.67831   0.08449
H          H       0.67831   0.30482   0.08449
H          H       0.32169   0.69518   0.08449
H          H       0.35507   0.30984   0.09939
H          H       0.64493   0.69016   0.09939
H          H       0.69016   0.35507   0.09939
H          H       0.30984   0.64493   0.09939
H          H       0.32857   0.32009   0.26488
H          H       0.67143   0.67991   0.26488
H          H       0.67991   0.32857   0.26488
H          H       0.32009   0.67143   0.26488
H          H       0.43988   0.16164   0.37289
H          H       0.56012   0.83836   0.37289
H          H       0.83836   0.43988   0.37289
H          H       0.16164   0.56012   0.37289
H          H       0.08762   0.59576   0.01588
H          H       0.91238   0.40424   0.01588
H          H       0.40424   0.08762   0.01588
H          H       0.59576   0.91238   0.01588
H          H       0.86694   0.35377   0.45458
H          H       0.13306   0.64623   0.45458
H          H       0.64623   0.86694   0.45458
H          H       0.35377   0.13306   0.45458
H          H       0.31533   0.17074   0.30784
H          H       0.68467   0.82926   0.30784
H          H       0.82926   0.31533   0.30784
H          H       0.17074   0.68467   0.30784
H          H       0.36528   0.06808   0.23473
H          H       0.63472   0.93192   0.23473
H          H       0.93192   0.36528   0.23473
H          H       0.06808   0.63472   0.23473
H          H       0.34976   0.99528   0.26798
H          H       0.65024   0.00472   0.26798
H          H       0.00472   0.34976   0.26798
H          H       0.99528   0.65024   0.26798
H          H       0.56586   0.12753   0.42524
H          H       0.43414   0.87247   0.42524
H          H       0.87247   0.56586   0.42524
H          H       0.12753   0.43414   0.42524
H          H       0.49791   0.14862   0.35454
H          H       0.50209   0.85138   0.35454
H          H       0.85138   0.49791   0.35454
H          H       0.14862   0.50209   0.35454
H          H       0.19195   0.29542   0.05593
H          H       0.80805   0.70458   0.05593
H          H       0.70458   0.19195   0.05593
H          H       0.29542   0.80805   0.05593
H          H       0.02303   0.49164   0.78474
H          H       0.97697   0.50836   0.78474
H          H       0.50836   0.02303   0.78474
H          H       0.49164   0.97697   0.78474
C          C       0.91476   0.44729   0.76235
C          C       0.08524   0.55271   0.76235
C          C       0.55271   0.91476   0.76235
C          C       0.44729   0.08524   0.76235
N          N       0.15696   0.29171   0.86591
N          N       0.84304   0.70829   0.86591
N          N       0.70829   0.15696   0.86591
N          N       0.29171   0.84304   0.86591
C          C       0.12765   0.32031   0.84968
C          C       0.87235   0.67969   0.84968
C          C       0.67969   0.12765   0.84968
C          C       0.32031   0.87235   0.84968
C          C       0.06852   0.35008   0.93576
C          C       0.93148   0.64992   0.93576
C          C       0.64992   0.06852   0.93576
C          C       0.35008   0.93148   0.93576
C          C       0.09477   0.31951   0.93969
C          C       0.90523   0.68049   0.93969
C          C       0.68049   0.09477   0.93969
C          C       0.31951   0.90523   0.93969
N          N       0.98438   0.44170   0.81408
N          N       0.01562   0.55830   0.81408
N          N       0.55830   0.98438   0.81408
N          N       0.44170   0.01562   0.81408
C          C       0.30296   0.18293   0.70557
C          C       0.69704   0.81707   0.70557
C          C       0.81707   0.30296   0.70557
C          C       0.18293   0.69704   0.70557
C          C       0.27560   0.21502   0.75538
C          C       0.72440   0.78498   0.75538
C          C       0.78498   0.27560   0.75538
C          C       0.21502   0.72440   0.75538
C          C       0.28321   0.15045   0.63251
C          C       0.71679   0.84955   0.63251
C          C       0.84955   0.28321   0.63251
C          C       0.15045   0.71679   0.63251
C          C       0.26932   0.12228   0.57509
C          C       0.73068   0.87772   0.57509
C          C       0.87772   0.26932   0.57509
C          C       0.12228   0.73068   0.57509
C          C       0.25402   0.08787   0.50787
C          C       0.74598   0.91213   0.50787
C          C       0.91213   0.25402   0.50787
C          C       0.08787   0.74598   0.50787
C          C       0.21491   0.07852   0.52385
C          C       0.78509   0.92148   0.52385
C          C       0.92148   0.21491   0.52385
C          C       0.07852   0.78509   0.52385
C          C       0.20041   0.04443   0.96266
C          C       0.79959   0.95557   0.96266
C          C       0.95557   0.20041   0.96266
C          C       0.04443   0.79959   0.96266
C          C       0.22493   0.01947   0.88591
C          C       0.77507   0.98053   0.88591
C          C       0.98053   0.22493   0.88591
C          C       0.01947   0.77507   0.88591
C          C       0.26395   0.02869   0.86965
C          C       0.73605   0.97131   0.86965
C          C       0.97131   0.26395   0.86965
C          C       0.02869   0.73605   0.86965
C          C       0.27855   0.06282   0.93036
C          C       0.72145   0.93718   0.93036
C          C       0.93718   0.27855   0.93036
C          C       0.06282   0.72145   0.93036
C          C       0.21896   0.23120   0.90769
C          C       0.78104   0.76880   0.90769
C          C       0.76880   0.21896   0.90769
C          C       0.23120   0.78104   0.90769
O          O       0.18855   0.22114   0.50433
O          O       0.81145   0.77886   0.50433
O          O       0.77886   0.18855   0.50433
O          O       0.22114   0.81145   0.50433
C          C       0.17913   0.18153   0.52490
C          C       0.82087   0.81847   0.52490
C          C       0.81847   0.17913   0.52490
C          C       0.18153   0.82087   0.52490
C          C       0.38653   0.04607   0.75736
C          C       0.61347   0.95393   0.75736
C          C       0.95393   0.38653   0.75736
C          C       0.04607   0.61347   0.75736
C          C       0.37808   0.00800   0.77845
C          C       0.62192   0.99200   0.77845
C          C       0.99200   0.37808   0.77845
C          C       0.00800   0.62192   0.77845
C          C       0.41239   0.98980   0.81374
C          C       0.58761   0.01020   0.81374
C          C       0.01020   0.41239   0.81374
C          C       0.98980   0.58761   0.81374
C          C       0.42625   0.05006   0.77520
C          C       0.57375   0.94994   0.77520
C          C       0.94994   0.42625   0.77520
C          C       0.05006   0.57375   0.77520
C          C       0.24382   0.20392   0.84271
C          C       0.75618   0.79608   0.84271
C          C       0.79608   0.24382   0.84271
C          C       0.20392   0.75618   0.84271
H          H       0.14715   0.26325   0.86250
H          H       0.85285   0.73675   0.86250
H          H       0.73675   0.14715   0.86250
H          H       0.26325   0.85285   0.86250
H          H       0.04441   0.35040   0.51158
H          H       0.95559   0.64960   0.51158
H          H       0.64960   0.04441   0.51158
H          H       0.35040   0.95559   0.51158
H          H       0.09064   0.29632   0.51777
H          H       0.90936   0.70368   0.51777
H          H       0.70368   0.09064   0.51777
H          H       0.29632   0.90936   0.51777
H          H       0.19570   0.09727   0.58477
H          H       0.80430   0.90273   0.58477
H          H       0.90273   0.19570   0.58477
H          H       0.09727   0.80430   0.58477
H          H       0.17022   0.03722   0.97563
H          H       0.82978   0.96278   0.97563
H          H       0.96278   0.17022   0.97563
H          H       0.03722   0.82978   0.97563
H          H       0.21372   0.99298   0.83960
H          H       0.78628   0.00702   0.83960
H          H       0.00702   0.21372   0.83960
H          H       0.99298   0.78628   0.83960
H          H       0.28283   0.00922   0.81066
H          H       0.71717   0.99078   0.81066
H          H       0.99078   0.28283   0.81066
H          H       0.00922   0.71717   0.81066
H          H       0.30892   0.06950   0.91815
H          H       0.69108   0.93050   0.91815
H          H       0.93050   0.30892   0.91815
H          H       0.06950   0.69108   0.91815
H          H       0.20315   0.16640   0.58044
H          H       0.79685   0.83360   0.58044
H          H       0.83360   0.20315   0.58044
H          H       0.16640   0.79685   0.58044
H          H       0.17185   0.16772   0.91783
H          H       0.82815   0.83228   0.91783
H          H       0.83228   0.17185   0.91783
H          H       0.16772   0.82815   0.91783
H          H       0.15353   0.17962   0.59781
H          H       0.84647   0.82038   0.59781
H          H       0.82038   0.15353   0.59781
H          H       0.17962   0.84647   0.59781
H          H       0.23921   0.17353   0.86191
H          H       0.76079   0.82647   0.86191
H          H       0.82647   0.23921   0.86191
H          H       0.17353   0.76079   0.86191
C          C       0.54360   0.10780   0.88877
C          C       0.45640   0.89220   0.88877
C          C       0.89220   0.54360   0.88877
C          C       0.10780   0.45640   0.88877
C          C       0.50691   0.11904   0.85044
C          C       0.49309   0.88096   0.85044
C          C       0.88096   0.50691   0.85044
C          C       0.11904   0.49309   0.85044
N          N       0.51157   0.05424   0.80944
N          N       0.48843   0.94576   0.80944
N          N       0.94576   0.51157   0.80944
N          N       0.05424   0.48843   0.80944
C          C       0.54783   0.06901   0.85704
C          C       0.45217   0.93099   0.85704
C          C       0.93099   0.54783   0.85704
C          C       0.06901   0.45217   0.85704
C          C       0.08689   0.51344   0.80596
C          C       0.91311   0.48656   0.80596
C          C       0.48656   0.08689   0.80596
C          C       0.51344   0.91311   0.80596
C          C       0.05002   0.41617   0.84186
C          C       0.94998   0.58383   0.84186
C          C       0.58383   0.05002   0.84186
C          C       0.41617   0.94998   0.84186
C          C       0.42650   0.11995   0.70038
C          C       0.57350   0.88005   0.70038
C          C       0.88005   0.42650   0.70038
C          C       0.11995   0.57350   0.70038
C          C       0.07451   0.38090   0.83767
C          C       0.92549   0.61910   0.83767
C          C       0.61910   0.07451   0.83767
C          C       0.38090   0.92549   0.83767
C          C       0.42433   0.15597   0.77265
C          C       0.57567   0.84403   0.77265
C          C       0.84403   0.42433   0.77265
C          C       0.15597   0.57567   0.77265
C          C       0.39676   0.18336   0.73052
C          C       0.60324   0.81664   0.73052
C          C       0.81664   0.39676   0.73052
C          C       0.18336   0.60324   0.73052
C          C       0.37023   0.17472   0.61936
C          C       0.62977   0.82528   0.61936
C          C       0.82528   0.37023   0.61936
C          C       0.17472   0.62977   0.61936
C          C       0.37430   0.14061   0.53926
C          C       0.62570   0.85939   0.53926
C          C       0.85939   0.37430   0.53926
C          C       0.14061   0.62570   0.53926
C          C       0.40321   0.11451   0.57503
C          C       0.59679   0.88549   0.57503
C          C       0.88549   0.40321   0.57503
C          C       0.11451   0.59679   0.57503
C          C       0.13198   0.34952   0.74496
C          C       0.86802   0.65048   0.74496
C          C       0.65048   0.13198   0.74496
C          C       0.34952   0.86802   0.74496
C          C       0.10532   0.37928   0.73753
C          C       0.89468   0.62072   0.73753
C          C       0.62072   0.10532   0.73753
C          C       0.37928   0.89468   0.73753
N          N       0.33480   0.19565   0.61070
N          N       0.66520   0.80435   0.61070
N          N       0.80435   0.33480   0.61070
N          N       0.19565   0.66520   0.61070
C          C       0.19479   0.29959   0.93488
C          C       0.80521   0.70041   0.93488
C          C       0.70041   0.19479   0.93488
C          C       0.29959   0.80521   0.93488
C          C       0.22444   0.27063   0.87733
C          C       0.77556   0.72937   0.87733
C          C       0.72937   0.22444   0.87733
C          C       0.27063   0.77556   0.87733
C          C       0.20668   0.34026   0.91236
C          C       0.79332   0.65974   0.91236
C          C       0.65974   0.20668   0.91236
C          C       0.34026   0.79332   0.91236
C          C       0.28322   0.25497   0.73629
C          C       0.71678   0.74503   0.73629
C          C       0.74503   0.28322   0.73629
C          C       0.25497   0.71678   0.73629
C          C       0.25669   0.28200   0.79326
C          C       0.74331   0.71800   0.79326
C          C       0.71800   0.25669   0.79326
C          C       0.28200   0.74331   0.79326
O          O       0.31763   0.26655   0.66538
O          O       0.68237   0.73345   0.66538
O          O       0.73345   0.31763   0.66538
O          O       0.26655   0.68237   0.66538
C          C       0.21654   0.37296   0.88654
C          C       0.78346   0.62704   0.88654
C          C       0.62704   0.21654   0.88654
C          C       0.37296   0.78346   0.88654
C          C       0.22860   0.41140   0.84757
C          C       0.77140   0.58860   0.84757
C          C       0.58860   0.22860   0.84757
C          C       0.41140   0.77140   0.84757
C          C       0.26448   0.42535   0.89468
C          C       0.73552   0.57465   0.89468
C          C       0.57465   0.26448   0.89468
C          C       0.42535   0.73552   0.89468
C          C       0.27713   0.46182   0.84947
C          C       0.72287   0.53818   0.84947
C          C       0.53818   0.27713   0.84947
C          C       0.46182   0.72287   0.84947
C          C       0.25399   0.48446   0.75731
C          C       0.74601   0.51554   0.75731
C          C       0.51554   0.25399   0.75731
C          C       0.48446   0.74601   0.75731
C          C       0.21818   0.47063   0.71020
C          C       0.78182   0.52937   0.71020
C          C       0.52937   0.21818   0.71020
C          C       0.47063   0.78182   0.71020
C          C       0.20551   0.43414   0.75488
C          C       0.79449   0.56586   0.75488
C          C       0.56586   0.20551   0.75488
C          C       0.43414   0.79449   0.75488
C          C       0.32659   0.30667   0.65372
C          C       0.67341   0.69333   0.65372
C          C       0.69333   0.32659   0.65372
C          C       0.30667   0.67341   0.65372
H          H       0.39344   0.20943   0.79441
H          H       0.60656   0.79057   0.79441
H          H       0.79057   0.39344   0.79441
H          H       0.20943   0.60656   0.79441
H          H       0.15632   0.34965   0.67105
H          H       0.84368   0.65035   0.67105
H          H       0.65035   0.15632   0.67105
H          H       0.34965   0.84368   0.67105
H          H       0.10949   0.40206   0.65766
H          H       0.89051   0.59794   0.65766
H          H       0.59794   0.10949   0.65766
H          H       0.40206   0.89051   0.65766
H          H       0.32811   0.20894   0.51054
H          H       0.67189   0.79106   0.51054
H          H       0.79106   0.32811   0.51054
H          H       0.20894   0.67189   0.51054
H          H       0.26144   0.31224   0.77353
H          H       0.73856   0.68776   0.77353
H          H       0.68776   0.26144   0.77353
H          H       0.31224   0.73856   0.77353
H          H       0.28282   0.40789   0.96468
H          H       0.71718   0.59211   0.96468
H          H       0.59211   0.28282   0.96468
H          H       0.40789   0.71718   0.96468
H          H       0.30500   0.47241   0.88490
H          H       0.69500   0.52759   0.88490
H          H       0.52759   0.30500   0.88490
H          H       0.47241   0.69500   0.88490
H          H       0.26392   0.51256   0.72168
H          H       0.73608   0.48744   0.72168
H          H       0.48744   0.26392   0.72168
H          H       0.51256   0.73608   0.72168
H          H       0.20037   0.48806   0.63812
H          H       0.79963   0.51194   0.63812
H          H       0.51194   0.20037   0.63812
H          H       0.48806   0.79963   0.63812
H          H       0.17800   0.42357   0.71562
H          H       0.82200   0.57643   0.71562
H          H       0.57643   0.17800   0.71562
H          H       0.42357   0.82200   0.71562
H          H       0.30482   0.32169   0.58449
H          H       0.69518   0.67831   0.58449
H          H       0.67831   0.30482   0.58449
H          H       0.32169   0.69518   0.58449
H          H       0.35507   0.30984   0.59939
H          H       0.64493   0.69016   0.59939
H          H       0.69016   0.35507   0.59939
H          H       0.30984   0.64493   0.59939
H          H       0.32857   0.32009   0.76488
H          H       0.67143   0.67991   0.76488
H          H       0.67991   0.32857   0.76488
H          H       0.32009   0.67143   0.76488
H          H       0.43988   0.16164   0.87289
H          H       0.56012   0.83836   0.87289
H          H       0.83836   0.43988   0.87289
H          H       0.16164   0.56012   0.87289
H          H       0.08762   0.59576   0.51587
H          H       0.91238   0.40424   0.51587
H          H       0.40424   0.08762   0.51587
H          H       0.59576   0.91238   0.51587
H          H       0.86694   0.35377   0.95458
H          H       0.13306   0.64623   0.95458
H          H       0.64623   0.86694   0.95458
H          H       0.35377   0.13306   0.95458
H          H       0.31533   0.17074   0.80784
H          H       0.68467   0.82926   0.80784
H          H       0.82926   0.31533   0.80784
H          H       0.17074   0.68467   0.80784
H          H       0.36528   0.06808   0.73473
H          H       0.63472   0.93192   0.73473
H          H       0.93192   0.36528   0.73473
H          H       0.06808   0.63472   0.73473
H          H       0.34976   0.99528   0.76798
H          H       0.65024   0.00472   0.76798
H          H       0.00472   0.34976   0.76798
H          H       0.99528   0.65024   0.76798
H          H       0.56586   0.12753   0.92524
H          H       0.43414   0.87247   0.92524
H          H       0.87247   0.56586   0.92524
H          H       0.12753   0.43414   0.92524
H          H       0.49791   0.14862   0.85454
H          H       0.50209   0.85138   0.85454
H          H       0.85138   0.49791   0.85454
H          H       0.14862   0.50209   0.85454
H          H       0.19195   0.29542   0.55593
H          H       0.80805   0.70458   0.55593
H          H       0.70458   0.19195   0.55593
H          H       0.29542   0.80805   0.55593
