data_crystal

_cell_length_a    56.46000
_cell_length_b    56.46000
_cell_length_c    8.80000
_cell_angle_alpha 90.00000
_cell_angle_beta  90.00000
_cell_angle_gamma 120.00000

_space_group_name_Hall 'P 1'
_space_group_name_H-M_alt 'P 1'

loop_
_symmetry_equiv_pos_as_xyz
 'x,y,z'

loop_
_atom_site_label
_atom_site_type_symbol
_atom_site_fract_x
_atom_site_fract_y
_atom_site_fract_z
S          S       0.28558   0.50781   0.46245
S          S       0.49219   0.77777   0.46245
S          S       0.22223   0.71442   0.46245
S          S       0.71442   0.49219   0.46245
S          S       0.50781   0.22223   0.46245
S          S       0.77777   0.28558   0.46245
S          S       0.20117   0.45136   0.45448
S          S       0.54864   0.74981   0.45448
S          S       0.25019   0.79883   0.45448
S          S       0.79883   0.54864   0.45448
S          S       0.45136   0.25019   0.45448
S          S       0.74981   0.20117   0.45448
N          N       0.37976   0.45441   0.22382
N          N       0.54559   0.92535   0.22382
N          N       0.07465   0.62024   0.22382
N          N       0.62024   0.54559   0.22382
N          N       0.45441   0.07465   0.22382
N          N       0.92535   0.37976   0.22382
N          N       0.25006   0.45557   0.41064
N          N       0.54443   0.79449   0.41064
N          N       0.20551   0.74994   0.41064
N          N       0.74994   0.54443   0.41064
N          N       0.45557   0.20551   0.41064
N          N       0.79449   0.25006   0.41064
N          N       0.10785   0.50500   0.20103
N          N       0.49500   0.60285   0.20103
N          N       0.39715   0.89215   0.20103
N          N       0.89215   0.49500   0.20103
N          N       0.50500   0.39715   0.20103
N          N       0.60285   0.10785   0.20103
N          N       0.23694   0.50397   0.41595
N          N       0.49603   0.73297   0.41595
N          N       0.26703   0.76306   0.41595
N          N       0.76306   0.49603   0.41595
N          N       0.50397   0.26703   0.41595
N          N       0.73297   0.23694   0.41595
C          C       0.34583   0.48193   0.26660
C          C       0.51807   0.86390   0.26660
C          C       0.13610   0.65417   0.26660
C          C       0.65417   0.51807   0.26660
C          C       0.48193   0.13610   0.26660
C          C       0.86390   0.34583   0.26660
C          C       0.33563   0.45166   0.23837
C          C       0.54834   0.88397   0.23837
C          C       0.11603   0.66437   0.23837
C          C       0.66437   0.54834   0.23837
C          C       0.45166   0.11603   0.23837
C          C       0.88397   0.33563   0.23837
C          C       0.30695   0.43842   0.16997
C          C       0.56158   0.86853   0.16997
C          C       0.13147   0.69305   0.16997
C          C       0.69305   0.56158   0.16997
C          C       0.43842   0.13147   0.16997
C          C       0.86853   0.30695   0.16997
C          C       0.28754   0.44086   0.28096
C          C       0.55914   0.84668   0.28096
C          C       0.15332   0.71246   0.28096
C          C       0.71246   0.55914   0.28096
C          C       0.44086   0.15332   0.28096
C          C       0.84668   0.28754   0.28096
C          C       0.32690   0.48511   0.37789
C          C       0.51489   0.84179   0.37789
C          C       0.15821   0.67310   0.37789
C          C       0.67310   0.51489   0.37789
C          C       0.48511   0.15821   0.37789
C          C       0.84179   0.32690   0.37789
C          C       0.44171   0.44843   0.12472
C          C       0.55157   0.99328   0.12472
C          C       0.00672   0.55829   0.12472
C          C       0.55829   0.55157   0.12472
C          C       0.44843   0.00672   0.12472
C          C       0.99328   0.44171   0.12472
C          C       0.41705   0.44507   0.21315
C          C       0.55493   0.97198   0.21315
C          C       0.02802   0.58295   0.21315
C          C       0.58295   0.55493   0.21315
C          C       0.44507   0.02802   0.21315
C          C       0.97198   0.41705   0.21315
C          C       0.40039   0.45477   0.12301
C          C       0.54523   0.94562   0.12301
C          C       0.05438   0.59961   0.12301
C          C       0.59961   0.54523   0.12301
C          C       0.45477   0.05438   0.12301
C          C       0.94562   0.40039   0.12301
C          C       0.41895   0.48395   0.06543
C          C       0.51605   0.93500   0.06543
C          C       0.06500   0.58105   0.06543
C          C       0.58105   0.51605   0.06543
C          C       0.48395   0.06500   0.06543
C          C       0.93500   0.41895   0.06543
C          C       0.44279   0.48590   0.47324
C          C       0.51410   0.95689   0.47324
C          C       0.04311   0.55721   0.47324
C          C       0.55721   0.51410   0.47324
C          C       0.48590   0.04311   0.47324
C          C       0.95689   0.44279   0.47324
C          C       0.48784   0.48441   0.49309
C          C       0.51559   0.00343   0.49309
C          C       0.99657   0.51216   0.49309
C          C       0.51216   0.51559   0.49309
C          C       0.48441   0.99657   0.49309
C          C       0.00343   0.48784   0.49309
C          C       0.46027   0.47803   0.07159
C          C       0.52197   0.98224   0.07159
C          C       0.01776   0.53973   0.07159
C          C       0.53973   0.52197   0.07159
C          C       0.47803   0.01776   0.07159
C          C       0.98224   0.46027   0.07159
C          C       0.29718   0.47095   0.32037
C          C       0.52905   0.82623   0.32037
C          C       0.17377   0.70282   0.32037
C          C       0.70282   0.52905   0.32037
C          C       0.47095   0.17377   0.32037
C          C       0.82623   0.29718   0.32037
C          C       0.35547   0.44806   0.13613
C          C       0.55194   0.90741   0.13613
C          C       0.09259   0.64453   0.13613
C          C       0.64453   0.55194   0.13613
C          C       0.44806   0.09259   0.13613
C          C       0.90741   0.35547   0.13613
C          C       0.27899   0.47296   0.44335
C          C       0.52704   0.80603   0.44335
C          C       0.19397   0.72101   0.44335
C          C       0.72101   0.52704   0.44335
C          C       0.47296   0.19397   0.44335
C          C       0.80603   0.27899   0.44335
C          C       0.14209   0.47839   0.25667
C          C       0.52161   0.66370   0.25667
C          C       0.33630   0.85791   0.25667
C          C       0.85791   0.52161   0.25667
C          C       0.47839   0.33630   0.25667
C          C       0.66370   0.14209   0.25667
C          C       0.15240   0.50879   0.23161
C          C       0.49121   0.64361   0.23161
C          C       0.35639   0.84760   0.23161
C          C       0.84760   0.49121   0.23161
C          C       0.50879   0.35639   0.23161
C          C       0.64361   0.15240   0.23161
C          C       0.18158   0.52252   0.17050
C          C       0.47748   0.65906   0.17050
C          C       0.34094   0.81842   0.17050
C          C       0.81842   0.47748   0.17050
C          C       0.52252   0.34094   0.17050
C          C       0.65906   0.18158   0.17050
C          C       0.20026   0.51947   0.28476
C          C       0.48053   0.68079   0.28476
C          C       0.31921   0.79974   0.28476
C          C       0.79974   0.48053   0.28476
C          C       0.51947   0.31921   0.28476
C          C       0.68079   0.20026   0.28476
C          C       0.16034   0.47479   0.37106
C          C       0.52521   0.68555   0.37106
C          C       0.31445   0.83966   0.37106
C          C       0.83966   0.52521   0.37106
C          C       0.47479   0.31445   0.37106
C          C       0.68555   0.16034   0.37106
C          C       0.04572   0.50702   0.17342
C          C       0.49298   0.53870   0.17342
C          C       0.46130   0.95428   0.17342
C          C       0.95428   0.49298   0.17342
C          C       0.50702   0.46130   0.17342
C          C       0.53870   0.04572   0.17342
C          C       0.07697   0.52289   0.17042
C          C       0.47711   0.55408   0.17042
C          C       0.44592   0.92303   0.17042
C          C       0.92303   0.47711   0.17042
C          C       0.52289   0.44592   0.17042
C          C       0.55408   0.07697   0.17042
C          C       0.08929   0.50708   0.09408
C          C       0.49292   0.58221   0.09408
C          C       0.41779   0.91071   0.09408
C          C       0.91071   0.49292   0.09408
C          C       0.50708   0.41779   0.09408
C          C       0.58221   0.08929   0.09408
C          C       0.06775   0.47839   0.04100
C          C       0.52161   0.58936   0.04100
C          C       0.41064   0.93225   0.04100
C          C       0.93225   0.52161   0.04100
C          C       0.47839   0.41064   0.04100
C          C       0.58936   0.06775   0.04100
C          C       0.04501   0.47875   0.44768
C          C       0.52125   0.56626   0.44768
C          C       0.43374   0.95499   0.44768
C          C       0.95499   0.52125   0.44768
C          C       0.47875   0.43374   0.44768
C          C       0.56626   0.04501   0.44768
C          C       0.03430   0.49701   0.01561
C          C       0.50299   0.53729   0.01561
C          C       0.46271   0.96570   0.01561
C          C       0.96570   0.50299   0.01561
C          C       0.49701   0.46271   0.01561
C          C       0.53729   0.03430   0.01561
C          C       0.19031   0.48920   0.31885
C          C       0.51080   0.70111   0.31885
C          C       0.29889   0.80969   0.31885
C          C       0.80969   0.51080   0.31885
C          C       0.48920   0.29889   0.31885
C          C       0.70111   0.19031   0.31885
C          C       0.13348   0.51282   0.12356
C          C       0.48718   0.62066   0.12356
C          C       0.37934   0.86652   0.12356
C          C       0.86652   0.48718   0.12356
C          C       0.51282   0.37934   0.12356
C          C       0.62066   0.13348   0.12356
C          C       0.25049   0.49481   0.02137
C          C       0.50519   0.75568   0.02137
C          C       0.24432   0.74951   0.02137
C          C       0.74951   0.50519   0.02137
C          C       0.49481   0.24432   0.02137
C          C       0.75568   0.25049   0.02137
C          C       0.23602   0.46387   0.01753
C          C       0.53613   0.77215   0.01753
C          C       0.22785   0.76398   0.01753
C          C       0.76398   0.53613   0.01753
C          C       0.46387   0.22785   0.01753
C          C       0.77215   0.23602   0.01753
C          C       0.20782   0.48627   0.44304
C          C       0.51373   0.72155   0.44304
C          C       0.27845   0.79218   0.44304
C          C       0.79218   0.51373   0.44304
C          C       0.48627   0.27845   0.44304
C          C       0.72155   0.20782   0.44304
H          H       0.33472   0.50720   0.39696
H          H       0.49280   0.82752   0.39696
H          H       0.17248   0.66528   0.39696
H          H       0.66528   0.49280   0.39696
H          H       0.50720   0.17248   0.39696
H          H       0.82752   0.33472   0.39696
H          H       0.29932   0.41644   0.14671
H          H       0.58356   0.88288   0.14671
H          H       0.11712   0.70068   0.14671
H          H       0.70068   0.58356   0.14671
H          H       0.41644   0.11712   0.14671
H          H       0.88288   0.29932   0.14671
H          H       0.26685   0.43115   0.22845
H          H       0.56885   0.83570   0.22845
H          H       0.16430   0.73315   0.22845
H          H       0.73315   0.56885   0.22845
H          H       0.43115   0.16430   0.22845
H          H       0.83570   0.26685   0.22845
H          H       0.45313   0.44196   0.19862
H          H       0.55804   0.01117   0.19862
H          H       0.98883   0.54687   0.19862
H          H       0.54687   0.55804   0.19862
H          H       0.44196   0.98883   0.19862
H          H       0.01117   0.45313   0.19862
H          H       0.40387   0.42328   0.24599
H          H       0.57672   0.98059   0.24599
H          H       0.01941   0.59613   0.24599
H          H       0.59613   0.57672   0.24599
H          H       0.42328   0.01941   0.24599
H          H       0.98059   0.40387   0.24599
H          H       0.40697   0.49035   0.49375
H          H       0.50965   0.91662   0.49375
H          H       0.08338   0.59303   0.49375
H          H       0.59303   0.50965   0.49375
H          H       0.49035   0.08338   0.49375
H          H       0.91662   0.40697   0.49375
H          H       0.45442   0.50685   0.42839
H          H       0.49315   0.94757   0.42839
H          H       0.05243   0.54558   0.42839
H          H       0.54558   0.49315   0.42839
H          H       0.50685   0.05243   0.42839
H          H       0.94757   0.45442   0.42839
H          H       0.34583   0.42657   0.09517
H          H       0.57343   0.91926   0.09517
H          H       0.08074   0.65417   0.09517
H          H       0.65417   0.57343   0.09517
H          H       0.42657   0.08074   0.09517
H          H       0.91926   0.34583   0.09517
H          H       0.12085   0.46802   0.30123
H          H       0.53198   0.65283   0.30123
H          H       0.34717   0.87915   0.30123
H          H       0.87915   0.53198   0.30123
H          H       0.46802   0.34717   0.30123
H          H       0.65283   0.12085   0.30123
H          H       0.18939   0.54462   0.15061
H          H       0.45538   0.64477   0.15061
H          H       0.35523   0.81061   0.15061
H          H       0.81061   0.45538   0.15061
H          H       0.54462   0.35523   0.15061
H          H       0.64477   0.18939   0.15061
H          H       0.22125   0.52954   0.23690
H          H       0.47046   0.69171   0.23690
H          H       0.30829   0.77875   0.23690
H          H       0.77875   0.47046   0.23690
H          H       0.52954   0.30829   0.23690
H          H       0.69171   0.22125   0.23690
H          H       0.03754   0.51868   0.22969
H          H       0.48132   0.51886   0.22969
H          H       0.48114   0.96246   0.22969
H          H       0.96246   0.48132   0.22969
H          H       0.51868   0.48114   0.22969
H          H       0.51886   0.03754   0.22969
H          H       0.08472   0.54297   0.11364
H          H       0.45703   0.54175   0.11364
H          H       0.45825   0.91528   0.11364
H          H       0.91528   0.45703   0.11364
H          H       0.54297   0.45825   0.11364
H          H       0.54175   0.08472   0.11364
H          H       0.07758   0.46905   0.47327
H          H       0.53095   0.60853   0.47327
H          H       0.39147   0.92242   0.47327
H          H       0.92242   0.53095   0.47327
H          H       0.46905   0.39147   0.47327
H          H       0.60853   0.07758   0.47327
H          H       0.02894   0.45755   0.42362
H          H       0.54245   0.57139   0.42362
H          H       0.42861   0.97106   0.42362
H          H       0.97106   0.54245   0.42362
H          H       0.45755   0.42861   0.42362
H          H       0.57139   0.02894   0.42362
H          H       0.14679   0.45258   0.40748
H          H       0.54742   0.69421   0.40748
H          H       0.30579   0.85321   0.40748
H          H       0.85321   0.54742   0.40748
H          H       0.45258   0.30579   0.40748
H          H       0.69421   0.14679   0.40748
H          H       0.14240   0.53522   0.09170
H          H       0.46478   0.60718   0.09170
H          H       0.39282   0.85760   0.09170
H          H       0.85760   0.46478   0.09170
H          H       0.53522   0.39282   0.09170
H          H       0.60718   0.14240   0.09170
H          H       0.36670   0.49908   0.22773
H          H       0.50092   0.86762   0.22773
H          H       0.13238   0.63330   0.22773
H          H       0.63330   0.50092   0.22773
H          H       0.49908   0.13238   0.22773
H          H       0.86762   0.36670   0.22773
S          S       0.28558   0.50781   0.96245
S          S       0.49219   0.77777   0.96245
S          S       0.22223   0.71442   0.96245
S          S       0.71442   0.49219   0.96245
S          S       0.50781   0.22223   0.96245
S          S       0.77777   0.28558   0.96245
S          S       0.20117   0.45136   0.95447
S          S       0.54864   0.74981   0.95447
S          S       0.25019   0.79883   0.95447
S          S       0.79883   0.54864   0.95447
S          S       0.45136   0.25019   0.95447
S          S       0.74981   0.20117   0.95447
N          N       0.37976   0.45441   0.72383
N          N       0.54559   0.92535   0.72383
N          N       0.07465   0.62024   0.72383
N          N       0.62024   0.54559   0.72383
N          N       0.45441   0.07465   0.72383
N          N       0.92535   0.37976   0.72383
N          N       0.25006   0.45557   0.91064
N          N       0.54443   0.79449   0.91064
N          N       0.20551   0.74994   0.91064
N          N       0.74994   0.54443   0.91064
N          N       0.45557   0.20551   0.91064
N          N       0.79449   0.25006   0.91064
N          N       0.10785   0.50500   0.70103
N          N       0.49500   0.60285   0.70103
N          N       0.39715   0.89215   0.70103
N          N       0.89215   0.49500   0.70103
N          N       0.50500   0.39715   0.70103
N          N       0.60285   0.10785   0.70103
N          N       0.23694   0.50397   0.91595
N          N       0.49603   0.73297   0.91595
N          N       0.26703   0.76306   0.91595
N          N       0.76306   0.49603   0.91595
N          N       0.50397   0.26703   0.91595
N          N       0.73297   0.23694   0.91595
C          C       0.34583   0.48193   0.76660
C          C       0.51807   0.86390   0.76660
C          C       0.13610   0.65417   0.76660
C          C       0.65417   0.51807   0.76660
C          C       0.48193   0.13610   0.76660
C          C       0.86390   0.34583   0.76660
C          C       0.33563   0.45166   0.73836
C          C       0.54834   0.88397   0.73836
C          C       0.11603   0.66437   0.73836
C          C       0.66437   0.54834   0.73836
C          C       0.45166   0.11603   0.73836
C          C       0.88397   0.33563   0.73836
C          C       0.30695   0.43842   0.66997
C          C       0.56158   0.86853   0.66997
C          C       0.13147   0.69305   0.66997
C          C       0.69305   0.56158   0.66997
C          C       0.43842   0.13147   0.66997
C          C       0.86853   0.30695   0.66997
C          C       0.28754   0.44086   0.78096
C          C       0.55914   0.84668   0.78096
C          C       0.15332   0.71246   0.78096
C          C       0.71246   0.55914   0.78096
C          C       0.44086   0.15332   0.78096
C          C       0.84668   0.28754   0.78096
C          C       0.32690   0.48511   0.87789
C          C       0.51489   0.84179   0.87789
C          C       0.15821   0.67310   0.87789
C          C       0.67310   0.51489   0.87789
C          C       0.48511   0.15821   0.87789
C          C       0.84179   0.32690   0.87789
C          C       0.44171   0.44843   0.62472
C          C       0.55157   0.99328   0.62472
C          C       0.00672   0.55829   0.62472
C          C       0.55829   0.55157   0.62472
C          C       0.44843   0.00672   0.62472
C          C       0.99328   0.44171   0.62472
C          C       0.41705   0.44507   0.71315
C          C       0.55493   0.97198   0.71315
C          C       0.02802   0.58295   0.71315
C          C       0.58295   0.55493   0.71315
C          C       0.44507   0.02802   0.71315
C          C       0.97198   0.41705   0.71315
C          C       0.40039   0.45477   0.62301
C          C       0.54523   0.94562   0.62301
C          C       0.05438   0.59961   0.62301
C          C       0.59961   0.54523   0.62301
C          C       0.45477   0.05438   0.62301
C          C       0.94562   0.40039   0.62301
C          C       0.41895   0.48395   0.56543
C          C       0.51605   0.93500   0.56543
C          C       0.06500   0.58105   0.56543
C          C       0.58105   0.51605   0.56543
C          C       0.48395   0.06500   0.56543
C          C       0.93500   0.41895   0.56543
C          C       0.44279   0.48590   0.97324
C          C       0.51410   0.95689   0.97324
C          C       0.04311   0.55721   0.97324
C          C       0.55721   0.51410   0.97324
C          C       0.48590   0.04311   0.97324
C          C       0.95689   0.44279   0.97324
C          C       0.48784   0.48441   0.99308
C          C       0.51559   0.00343   0.99308
C          C       0.99657   0.51216   0.99308
C          C       0.51216   0.51559   0.99308
C          C       0.48441   0.99657   0.99308
C          C       0.00343   0.48784   0.99308
C          C       0.46027   0.47803   0.57159
C          C       0.52197   0.98224   0.57159
C          C       0.01776   0.53973   0.57159
C          C       0.53973   0.52197   0.57159
C          C       0.47803   0.01776   0.57159
C          C       0.98224   0.46027   0.57159
C          C       0.29718   0.47095   0.82037
C          C       0.52905   0.82623   0.82037
C          C       0.17377   0.70282   0.82037
C          C       0.70282   0.52905   0.82037
C          C       0.47095   0.17377   0.82037
C          C       0.82623   0.29718   0.82037
C          C       0.35547   0.44806   0.63613
C          C       0.55194   0.90741   0.63613
C          C       0.09259   0.64453   0.63613
C          C       0.64453   0.55194   0.63613
C          C       0.44806   0.09259   0.63613
C          C       0.90741   0.35547   0.63613
C          C       0.27899   0.47296   0.94335
C          C       0.52704   0.80603   0.94335
C          C       0.19397   0.72101   0.94335
C          C       0.72101   0.52704   0.94335
C          C       0.47296   0.19397   0.94335
C          C       0.80603   0.27899   0.94335
C          C       0.14209   0.47839   0.75667
C          C       0.52161   0.66370   0.75667
C          C       0.33630   0.85791   0.75667
C          C       0.85791   0.52161   0.75667
C          C       0.47839   0.33630   0.75667
C          C       0.66370   0.14209   0.75667
C          C       0.15240   0.50879   0.73161
C          C       0.49121   0.64361   0.73161
C          C       0.35639   0.84760   0.73161
C          C       0.84760   0.49121   0.73161
C          C       0.50879   0.35639   0.73161
C          C       0.64361   0.15240   0.73161
C          C       0.18158   0.52252   0.67051
C          C       0.47748   0.65906   0.67051
C          C       0.34094   0.81842   0.67051
C          C       0.81842   0.47748   0.67051
C          C       0.52252   0.34094   0.67051
C          C       0.65906   0.18158   0.67051
C          C       0.20026   0.51947   0.78476
C          C       0.48053   0.68079   0.78476
C          C       0.31921   0.79974   0.78476
C          C       0.79974   0.48053   0.78476
C          C       0.51947   0.31921   0.78476
C          C       0.68079   0.20026   0.78476
C          C       0.16034   0.47479   0.87106
C          C       0.52521   0.68555   0.87106
C          C       0.31445   0.83966   0.87106
C          C       0.83966   0.52521   0.87106
C          C       0.47479   0.31445   0.87106
C          C       0.68555   0.16034   0.87106
C          C       0.04572   0.50702   0.67342
C          C       0.49298   0.53870   0.67342
C          C       0.46130   0.95428   0.67342
C          C       0.95428   0.49298   0.67342
C          C       0.50702   0.46130   0.67342
C          C       0.53870   0.04572   0.67342
C          C       0.07697   0.52289   0.67043
C          C       0.47711   0.55408   0.67043
C          C       0.44592   0.92303   0.67043
C          C       0.92303   0.47711   0.67043
C          C       0.52289   0.44592   0.67043
C          C       0.55408   0.07697   0.67043
C          C       0.08929   0.50708   0.59408
C          C       0.49292   0.58221   0.59408
C          C       0.41779   0.91071   0.59408
C          C       0.91071   0.49292   0.59408
C          C       0.50708   0.41779   0.59408
C          C       0.58221   0.08929   0.59408
C          C       0.06775   0.47839   0.54101
C          C       0.52161   0.58936   0.54101
C          C       0.41064   0.93225   0.54101
C          C       0.93225   0.52161   0.54101
C          C       0.47839   0.41064   0.54101
C          C       0.58936   0.06775   0.54101
C          C       0.04501   0.47875   0.94768
C          C       0.52125   0.56626   0.94768
C          C       0.43374   0.95499   0.94768
C          C       0.95499   0.52125   0.94768
C          C       0.47875   0.43374   0.94768
C          C       0.56626   0.04501   0.94768
C          C       0.03430   0.49701   0.51561
C          C       0.50299   0.53729   0.51561
C          C       0.46271   0.96570   0.51561
C          C       0.96570   0.50299   0.51561
C          C       0.49701   0.46271   0.51561
C          C       0.53729   0.03430   0.51561
C          C       0.19031   0.48920   0.81885
C          C       0.51080   0.70111   0.81885
C          C       0.29889   0.80969   0.81885
C          C       0.80969   0.51080   0.81885
C          C       0.48920   0.29889   0.81885
C          C       0.70111   0.19031   0.81885
C          C       0.13348   0.51282   0.62356
C          C       0.48718   0.62066   0.62356
C          C       0.37934   0.86652   0.62356
C          C       0.86652   0.48718   0.62356
C          C       0.51282   0.37934   0.62356
C          C       0.62066   0.13348   0.62356
C          C       0.25049   0.49481   0.52137
C          C       0.50519   0.75568   0.52137
C          C       0.24432   0.74951   0.52137
C          C       0.74951   0.50519   0.52137
C          C       0.49481   0.24432   0.52137
C          C       0.75568   0.25049   0.52137
C          C       0.23602   0.46387   0.51753
C          C       0.53613   0.77215   0.51753
C          C       0.22785   0.76398   0.51753
C          C       0.76398   0.53613   0.51753
C          C       0.46387   0.22785   0.51753
C          C       0.77215   0.23602   0.51753
C          C       0.20782   0.48627   0.94304
C          C       0.51373   0.72155   0.94304
C          C       0.27845   0.79218   0.94304
C          C       0.79218   0.51373   0.94304
C          C       0.48627   0.27845   0.94304
C          C       0.72155   0.20782   0.94304
H          H       0.33472   0.50720   0.89696
H          H       0.49280   0.82752   0.89696
H          H       0.17248   0.66528   0.89696
H          H       0.66528   0.49280   0.89696
H          H       0.50720   0.17248   0.89696
H          H       0.82752   0.33472   0.89696
H          H       0.29932   0.41644   0.64670
H          H       0.58356   0.88288   0.64670
H          H       0.11712   0.70068   0.64670
H          H       0.70068   0.58356   0.64670
H          H       0.41644   0.11712   0.64670
H          H       0.88288   0.29932   0.64670
H          H       0.26685   0.43115   0.72845
H          H       0.56885   0.83570   0.72845
H          H       0.16430   0.73315   0.72845
H          H       0.73315   0.56885   0.72845
H          H       0.43115   0.16430   0.72845
H          H       0.83570   0.26685   0.72845
H          H       0.45313   0.44196   0.69862
H          H       0.55804   0.01117   0.69862
H          H       0.98883   0.54687   0.69862
H          H       0.54687   0.55804   0.69862
H          H       0.44196   0.98883   0.69862
H          H       0.01117   0.45313   0.69862
H          H       0.40387   0.42328   0.74599
H          H       0.57672   0.98059   0.74599
H          H       0.01941   0.59613   0.74599
H          H       0.59613   0.57672   0.74599
H          H       0.42328   0.01941   0.74599
H          H       0.98059   0.40387   0.74599
H          H       0.40697   0.49035   0.99375
H          H       0.50965   0.91662   0.99375
H          H       0.08338   0.59303   0.99375
H          H       0.59303   0.50965   0.99375
H          H       0.49035   0.08338   0.99375
H          H       0.91662   0.40697   0.99375
H          H       0.45442   0.50685   0.92839
H          H       0.49315   0.94757   0.92839
H          H       0.05243   0.54558   0.92839
H          H       0.54558   0.49315   0.92839
H          H       0.50685   0.05243   0.92839
H          H       0.94757   0.45442   0.92839
H          H       0.34583   0.42657   0.59517
H          H       0.57343   0.91926   0.59517
H          H       0.08074   0.65417   0.59517
H          H       0.65417   0.57343   0.59517
H          H       0.42657   0.08074   0.59517
H          H       0.91926   0.34583   0.59517
H          H       0.12085   0.46802   0.80123
H          H       0.53198   0.65283   0.80123
H          H       0.34717   0.87915   0.80123
H          H       0.87915   0.53198   0.80123
H          H       0.46802   0.34717   0.80123
H          H       0.65283   0.12085   0.80123
H          H       0.18939   0.54462   0.65061
H          H       0.45538   0.64477   0.65061
H          H       0.35523   0.81061   0.65061
H          H       0.81061   0.45538   0.65061
H          H       0.54462   0.35523   0.65061
H          H       0.64477   0.18939   0.65061
H          H       0.22125   0.52954   0.73690
H          H       0.47046   0.69171   0.73690
H          H       0.30829   0.77875   0.73690
H          H       0.77875   0.47046   0.73690
H          H       0.52954   0.30829   0.73690
H          H       0.69171   0.22125   0.73690
H          H       0.03754   0.51868   0.72970
H          H       0.48132   0.51886   0.72970
H          H       0.48114   0.96246   0.72970
H          H       0.96246   0.48132   0.72970
H          H       0.51868   0.48114   0.72970
H          H       0.51886   0.03754   0.72970
H          H       0.08472   0.54297   0.61364
H          H       0.45703   0.54175   0.61364
H          H       0.45825   0.91528   0.61364
H          H       0.91528   0.45703   0.61364
H          H       0.54297   0.45825   0.61364
H          H       0.54175   0.08472   0.61364
H          H       0.07758   0.46905   0.97327
H          H       0.53095   0.60853   0.97327
H          H       0.39147   0.92242   0.97327
H          H       0.92242   0.53095   0.97327
H          H       0.46905   0.39147   0.97327
H          H       0.60853   0.07758   0.97327
H          H       0.02894   0.45755   0.92361
H          H       0.54245   0.57139   0.92361
H          H       0.42861   0.97106   0.92361
H          H       0.97106   0.54245   0.92361
H          H       0.45755   0.42861   0.92361
H          H       0.57139   0.02894   0.92361
H          H       0.14679   0.45258   0.90748
H          H       0.54742   0.69421   0.90748
H          H       0.30579   0.85321   0.90748
H          H       0.85321   0.54742   0.90748
H          H       0.45258   0.30579   0.90748
H          H       0.69421   0.14679   0.90748
H          H       0.14240   0.53522   0.59171
H          H       0.46478   0.60718   0.59171
H          H       0.39282   0.85760   0.59171
H          H       0.85760   0.46478   0.59171
H          H       0.53522   0.39282   0.59171
H          H       0.60718   0.14240   0.59171
H          H       0.36670   0.49908   0.72773
H          H       0.50092   0.86762   0.72773
H          H       0.13238   0.63330   0.72773
H          H       0.63330   0.50092   0.72773
H          H       0.49908   0.13238   0.72773
H          H       0.86762   0.36670   0.72773
