data_crystal

_cell_length_a    18.82810
_cell_length_b    18.72270
_cell_length_c    7.22500
_cell_angle_alpha 90.00000
_cell_angle_beta  90.00000
_cell_angle_gamma 120.00000

_space_group_name_Hall 'P 1'
_space_group_name_H-M_alt 'P 1'

loop_
_symmetry_equiv_pos_as_xyz
 'x,y,z'

loop_
_atom_site_label
_atom_site_type_symbol
_atom_site_fract_x
_atom_site_fract_y
_atom_site_fract_z
C          C       0.17580   0.11090   0.15130
C          C       0.22550   0.08120   0.07715
C          C       0.31090   0.12850   0.07915
C          C       0.35070   0.20860   0.15600
C          C       0.30140   0.23890   0.22885
C          C       0.21620   0.19090   0.22790
N          N       0.43620   0.26140   0.15340
C          C       0.48740   0.23470   0.15785
H          H       0.19660   0.01980   0.01275
H          H       0.34720   0.10380   0.01585
H          H       0.33090   0.30080   0.29095
H          H       0.18000   0.21620   0.28940
C          C       0.95010   0.05160   0.14500
C          C       0.89940   0.09190   0.14285
C          C       0.92800   0.17120   0.21795
C          C       0.87980   0.20860   0.21720
C          C       0.80010   0.16770   0.14075
C          C       0.77090   0.08810   0.06690
N          N       0.74660   0.19980   0.14335
C          C       0.77230   0.27770   0.13730
H          H       0.98910   0.20420   0.28195
H          H       0.90370   0.26970   0.28105
N          N       0.80740   0.57190   0.13155
C          C       0.72960   0.52060   0.12995
C          C       0.81980   0.05160   0.06655
C          C       0.03640   0.09840   0.14865
C          C       0.08500   0.06050   0.14795
C          C       0.04530   0.97380   0.14370
C          C       0.95910   0.92500   0.14145
C          C       0.91260   0.96490   0.14230
C          C       0.84040   0.65790   0.13070
C          C       0.80060   0.69780   0.20845
C          C       0.83900   0.78370   0.21135
C          C       0.91830   0.83360   0.13775
C          C       0.95760   0.79330   0.06065
C          C       0.92010   0.70760   0.05835
H          H       0.70940   0.05530   0.00505
H          H       0.79540   0.99030   0.00395
H          H       0.06650   0.16600   0.14740
H          H       0.08230   0.94340   0.14690
H          H       0.84530   0.92750   0.14050
H          H       0.73970   0.66120   0.27140
H          H       0.80690   0.81270   0.27615
H          H       0.01900   0.82990   0.49960
H          H       0.95200   0.67800   0.49575
C          C       0.69600   0.43070   0.13660
C          C       0.74800   0.39680   0.13610
C          C       0.71600   0.31090   0.14205
C          C       0.63020   0.25860   0.14995
C          C       0.57690   0.29090   0.14980
C          C       0.61060   0.37710   0.14245
H          H       0.46690   0.16730   0.17050
H          H       0.68300   0.54140   0.12150
H          H       0.81470   0.43860   0.13030
H          H       0.56890   0.40230   0.14215
H          H       0.83930   0.32490   0.12410
H          H       0.60510   0.19150   0.15510
C          C       0.17580   0.11090   0.65130
C          C       0.22550   0.08120   0.57715
C          C       0.31090   0.12850   0.57915
C          C       0.35070   0.20860   0.65600
C          C       0.30140   0.23890   0.72885
C          C       0.21620   0.19090   0.72790
N          N       0.43620   0.26140   0.65340
C          C       0.48740   0.23470   0.65785
H          H       0.19660   0.01980   0.51275
H          H       0.34720   0.10380   0.51585
H          H       0.33090   0.30080   0.79095
H          H       0.18000   0.21620   0.78940
C          C       0.95010   0.05160   0.64500
C          C       0.89940   0.09190   0.64285
C          C       0.92800   0.17120   0.71795
C          C       0.87980   0.20860   0.71720
C          C       0.80010   0.16770   0.64075
C          C       0.77090   0.08810   0.56690
N          N       0.74660   0.19980   0.64335
C          C       0.77230   0.27770   0.63730
H          H       0.98910   0.20420   0.78195
H          H       0.90370   0.26970   0.78105
N          N       0.80740   0.57190   0.63155
C          C       0.72960   0.52060   0.62995
C          C       0.81980   0.05160   0.56655
C          C       0.03640   0.09840   0.64865
C          C       0.08500   0.06050   0.64795
C          C       0.04530   0.97380   0.64370
C          C       0.95910   0.92500   0.64145
C          C       0.91260   0.96490   0.64230
C          C       0.84040   0.65790   0.63070
C          C       0.80060   0.69780   0.70845
C          C       0.83900   0.78370   0.71135
C          C       0.91830   0.83360   0.63775
C          C       0.95760   0.79330   0.56065
C          C       0.92010   0.70760   0.55835
H          H       0.70940   0.05530   0.50505
H          H       0.79540   0.99030   0.50395
H          H       0.06650   0.16600   0.64740
H          H       0.08230   0.94340   0.64690
H          H       0.84530   0.92750   0.64050
H          H       0.73970   0.66120   0.77140
H          H       0.80690   0.81270   0.77615
H          H       0.01900   0.82990   0.99960
H          H       0.95200   0.67800   0.99575
C          C       0.69600   0.43070   0.63660
C          C       0.74800   0.39680   0.63610
C          C       0.71600   0.31090   0.64205
C          C       0.63020   0.25860   0.64995
C          C       0.57690   0.29090   0.64980
C          C       0.61060   0.37710   0.64245
H          H       0.46690   0.16730   0.67050
H          H       0.68300   0.54140   0.62150
H          H       0.81470   0.43860   0.63030
H          H       0.56890   0.40230   0.64215
H          H       0.83930   0.32490   0.62410
H          H       0.60510   0.19150   0.65510
