data_crystal

_cell_length_a    25.40000
_cell_length_b    48.10000
_cell_length_c    9.20000
_cell_angle_alpha 74.30000
_cell_angle_beta  64.30000
_cell_angle_gamma 81.90000

_space_group_name_Hall 'P 1'
_space_group_name_H-M_alt 'P 1'

loop_
_symmetry_equiv_pos_as_xyz
 'x,y,z'

loop_
_atom_site_label
_atom_site_type_symbol
_atom_site_fract_x
_atom_site_fract_y
_atom_site_fract_z
C          C       0.61520   0.73728   0.33347
C          C       0.38480   0.26272   0.16653
C          C       0.64172   0.70959   0.34568
C          C       0.35828   0.29041   0.15432
C          C       0.70186   0.71288   0.29792
C          C       0.29814   0.28712   0.20208
C          C       0.70901   0.74347   0.26019
C          C       0.29099   0.25653   0.23981
N          N       0.65647   0.75812   0.27285
N          N       0.34353   0.24188   0.22715
C          C       0.55139   0.74281   0.36395
C          C       0.44861   0.25719   0.13605
C          C       0.61404   0.68239   0.36625
C          C       0.38596   0.31761   0.13375
C          C       0.74895   0.68812   0.28204
C          C       0.25105   0.31188   0.21796
C          C       0.76345   0.75647   0.24435
C          C       0.23655   0.24353   0.25565
C          C       0.64490   0.78958   0.23266
C          C       0.35510   0.21042   0.26734
C          C       0.59520   0.80270   0.33823
C          C       0.40480   0.19730   0.16177
C          C       0.58461   0.83267   0.30790
C          C       0.41539   0.16733   0.19210
C          C       0.62057   0.85093   0.16037
C          C       0.37943   0.14907   0.33963
C          C       0.66514   0.83775   0.04058
C          C       0.33486   0.16225   0.45942
C          C       0.67574   0.80739   0.07504
C          C       0.32426   0.19261   0.42496
C          C       0.79472   0.77952   0.11357
C          C       0.20528   0.22048   0.38643
C          C       0.84992   0.78743   0.09042
C          C       0.15008   0.21257   0.40958
C          C       0.87763   0.77140   0.19074
C          C       0.12237   0.22860   0.30926
C          C       0.84773   0.74816   0.31668
C          C       0.15227   0.25184   0.18332
C          C       0.79038   0.74201   0.35047
C          C       0.20962   0.25799   0.14953
C          C       0.80898   0.69303   0.18524
C          C       0.19102   0.30697   0.31476
C          C       0.85153   0.67043   0.16216
C          C       0.14847   0.32957   0.33784
C          C       0.83588   0.64152   0.23885
C          C       0.16412   0.35848   0.26115
C          C       0.77677   0.63606   0.33956
C          C       0.22323   0.36394   0.16044
C          C       0.73474   0.65878   0.35933
C          C       0.26526   0.34122   0.14067
C          C       0.63928   0.66729   0.24089
C          C       0.36072   0.33271   0.25911
C          C       0.62250   0.63908   0.26743
C          C       0.37750   0.36092   0.23257
C          C       0.57610   0.62661   0.41296
C          C       0.42390   0.37339   0.08704
C          C       0.54859   0.64196   0.03652
C          C       0.45141   0.35804   0.46348
C          C       0.56918   0.66897   0.01622
C          C       0.43082   0.33103   0.48378
C          C       0.53564   0.76232   0.24635
C          C       0.46436   0.23768   0.25365
C          C       0.47711   0.76631   0.26380
C          C       0.52289   0.23369   0.23620
C          C       0.43265   0.74983   0.40139
C          C       0.56735   0.25017   0.09861
C          C       0.44767   0.73187   0.02675
C          C       0.55233   0.26813   0.47325
C          C       0.50570   0.72928   0.01035
C          C       0.49430   0.27072   0.48965
C          C       0.56058   0.59680   0.43697
C          C       0.43942   0.40320   0.06303
N          N       0.52833   0.59200   0.36921
N          N       0.47167   0.40800   0.13079
C          C       0.88113   0.61756   0.21042
C          C       0.11887   0.38244   0.28958
N          N       0.86953   0.59105   0.29912
N          N       0.13047   0.40895   0.20088
C          C       0.93753   0.77828   0.16451
C          C       0.06247   0.22172   0.33549
N          N       0.96369   0.76134   0.25214
N          N       0.03631   0.23866   0.24786
C          C       0.37098   0.75043   0.41904
C          C       0.62902   0.24957   0.08096
N          N       0.35367   0.76580   0.30593
N          N       0.64633   0.23420   0.19407
C          C       0.51091   0.98429   0.24714
C          C       0.48909   0.01571   0.25286
C          C       0.55551   0.97681   0.10241
C          C       0.44449   0.02319   0.39759
C          C       0.57539   0.94791   0.09837
C          C       0.42461   0.05209   0.40163
C          C       0.55147   0.92521   0.23869
C          C       0.44853   0.07479   0.26131
C          C       0.50763   0.93224   0.38182
C          C       0.49237   0.06776   0.11818
C          C       0.48761   0.96095   0.38674
C          C       0.51239   0.03905   0.11326
N          N       0.56935   0.89499   0.24384
N          N       0.43065   0.10501   0.25616
C          C       0.60889   0.88307   0.12779
C          C       0.39111   0.11693   0.37221
C          C       0.29572   0.76636   0.30883
C          C       0.70428   0.23364   0.19117
C          C       0.01993   0.76395   0.25169
C          C       0.98007   0.23605   0.24831
C          C       0.90879   0.56592   0.28189
C          C       0.09121   0.43408   0.21811
C          C       0.51824   0.56445   0.35370
C          C       0.48176   0.43555   0.14630
C          C       0.05017   0.78996   0.18827
C          C       0.94983   0.21004   0.31173
C          C       0.10305   0.79125   0.20247
C          C       0.89695   0.20875   0.29753
C          C       0.12753   0.76651   0.27856
C          C       0.87247   0.23349   0.22144
C          C       0.09671   0.74059   0.33957
C          C       0.90329   0.25941   0.16043
C          C       0.04373   0.73957   0.32791
C          C       0.95627   0.26043   0.17209
C          C       0.28224   0.78710   0.18893
C          C       0.71776   0.21290   0.31107
C          C       0.22800   0.78760   0.18007
C          C       0.77200   0.21240   0.31993
C          C       0.18492   0.76724   0.29220
C          C       0.81508   0.23276   0.20780
C          C       0.19842   0.74676   0.41465
C          C       0.80158   0.25324   0.08535
C          C       0.25286   0.74609   0.42185
C          C       0.74714   0.25391   0.07815
C          C       0.89591   0.54172   0.41509
C          C       0.10409   0.45828   0.08491
C          C       0.93117   0.51635   0.40395
C          C       0.06883   0.48365   0.09605
C          C       0.98094   0.51391   0.25656
C          C       0.01906   0.48609   0.24344
C          C       0.99310   0.53865   0.12191
C          C       0.00690   0.46135   0.37809
C          C       0.95779   0.56408   0.13443
C          C       0.04221   0.43592   0.36557
C          C       0.47074   0.56210   0.32027
C          C       0.52926   0.43790   0.17973
C          C       0.46307   0.53711   0.28197
C          C       0.53693   0.46289   0.21803
C          C       0.50358   0.51342   0.27345
C          C       0.49642   0.48658   0.22655
C          C       0.55127   0.51611   0.30976
C          C       0.44873   0.48389   0.19024
C          C       0.55845   0.54116   0.34886
C          C       0.44155   0.45884   0.15114
H          H       0.03245   0.80936   0.13154
H          H       0.96755   0.19064   0.36846
H          H       0.12407   0.81182   0.15590
H          H       0.87593   0.18818   0.34410
H          H       0.11364   0.72070   0.39454
H          H       0.88636   0.27930   0.10546
H          H       0.02075   0.71946   0.37846
H          H       0.97925   0.28054   0.12154
H          H       0.02928   0.53888   0.00380
H          H       0.97072   0.46112   0.49621
H          H       0.56056   0.78979   0.43431
H          H       0.43944   0.21021   0.06569
H          H       0.54648   0.84150   0.39683
H          H       0.45352   0.15850   0.10317
H          H       0.69054   0.85078   0.41890
H          H       0.30946   0.14922   0.08110
H          H       0.70488   0.79756   0.47518
H          H       0.29512   0.20244   0.02482
H          H       0.78021   0.79025   0.01947
H          H       0.21979   0.20975   0.48052
H          H       0.87253   0.80500   0.48762
H          H       0.12747   0.19500   0.01239
H          H       0.87070   0.73453   0.38485
H          H       0.12930   0.26547   0.11515
H          H       0.76917   0.72377   0.44967
H          H       0.23083   0.27623   0.05033
H          H       0.82370   0.71445   0.12760
H          H       0.17630   0.28555   0.37240
H          H       0.89693   0.67565   0.08452
H          H       0.10307   0.32435   0.41548
H          H       0.76288   0.61404   0.40118
H          H       0.23712   0.38596   0.09882
H          H       0.69076   0.65270   0.43545
H          H       0.30924   0.34730   0.06455
H          H       0.67565   0.67672   0.12923
H          H       0.32435   0.32328   0.37077
H          H       0.64538   0.62644   0.17644
H          H       0.35462   0.37356   0.32356
H          H       0.51333   0.63242   0.15177
H          H       0.48667   0.36758   0.34823
H          H       0.55337   0.67766   0.12381
H          H       0.44663   0.32234   0.37619
H          H       0.57041   0.77449   0.14456
H          H       0.42959   0.22551   0.35544
H          H       0.46669   0.78131   0.16812
H          H       0.53331   0.21869   0.33188
H          H       0.41414   0.72020   0.13962
H          H       0.58586   0.27980   0.36038
H          H       0.51399   0.71815   0.11656
H          H       0.48601   0.28185   0.38344
H          H       0.58141   0.57925   0.49667
H          H       0.41859   0.42075   0.00333
H          H       0.92471   0.62286   0.11600
H          H       0.07529   0.37714   0.38400
H          H       0.95896   0.79717   0.07114
H          H       0.04104   0.20283   0.42885
H          H       0.34056   0.73694   0.03070
H          H       0.65944   0.26306   0.46930
H          H       0.57568   0.99288   0.48925
H          H       0.42432   0.00712   0.01074
H          H       0.60900   0.94353   0.48457
H          H       0.39100   0.05647   0.01544
H          H       0.48901   0.91509   0.49175
H          H       0.51099   0.08491   0.00825
H          H       0.45406   0.96423   0.00282
H          H       0.54594   0.03577   0.49718
H          H       0.63414   0.89618   0.00647
H          H       0.36586   0.10382   0.49352
H          H       0.31491   0.80252   0.09860
H          H       0.68509   0.19748   0.40141
H          H       0.22111   0.80328   0.08052
H          H       0.77889   0.19672   0.41947
H          H       0.16675   0.73116   0.00740
H          H       0.83325   0.26884   0.49260
H          H       0.26075   0.72951   0.01626
H          H       0.73925   0.27049   0.48374
H          H       0.85822   0.54273   0.02963
H          H       0.14178   0.45727   0.47037
H          H       0.91827   0.49896   0.01345
H          H       0.08173   0.50104   0.48655
H          H       0.96799   0.58193   0.02668
H          H       0.03201   0.41807   0.47332
H          H       0.44027   0.58025   0.31943
H          H       0.55973   0.41975   0.18057
H          H       0.42562   0.53733   0.25588
H          H       0.57438   0.46267   0.24412
H          H       0.58417   0.49930   0.30797
H          H       0.41583   0.50070   0.19203
H          H       0.59661   0.54256   0.36974
H          H       0.40339   0.45744   0.13026
C          C       0.61520   0.73728   0.83347
C          C       0.38480   0.26272   0.66653
C          C       0.64172   0.70959   0.84568
C          C       0.35828   0.29041   0.65432
C          C       0.70186   0.71288   0.79792
C          C       0.29814   0.28712   0.70208
C          C       0.70901   0.74347   0.76019
C          C       0.29099   0.25653   0.73981
N          N       0.65647   0.75812   0.77285
N          N       0.34353   0.24188   0.72715
C          C       0.55139   0.74281   0.86395
C          C       0.44861   0.25719   0.63605
C          C       0.61404   0.68239   0.86625
C          C       0.38596   0.31761   0.63375
C          C       0.74895   0.68812   0.78204
C          C       0.25105   0.31188   0.71796
C          C       0.76345   0.75647   0.74435
C          C       0.23655   0.24353   0.75564
C          C       0.64490   0.78958   0.73266
C          C       0.35510   0.21042   0.76734
C          C       0.59520   0.80270   0.83823
C          C       0.40480   0.19730   0.66177
C          C       0.58461   0.83267   0.80790
C          C       0.41539   0.16733   0.69210
C          C       0.62057   0.85093   0.66037
C          C       0.37943   0.14907   0.83963
C          C       0.66514   0.83775   0.54058
C          C       0.33486   0.16225   0.95942
C          C       0.67574   0.80739   0.57504
C          C       0.32426   0.19261   0.92496
C          C       0.79472   0.77952   0.61357
C          C       0.20528   0.22048   0.88643
C          C       0.84992   0.78743   0.59042
C          C       0.15008   0.21257   0.90958
C          C       0.87763   0.77140   0.69074
C          C       0.12237   0.22860   0.80926
C          C       0.84773   0.74816   0.81668
C          C       0.15227   0.25184   0.68332
C          C       0.79038   0.74201   0.85047
C          C       0.20962   0.25799   0.64953
C          C       0.80898   0.69303   0.68524
C          C       0.19102   0.30697   0.81476
C          C       0.85153   0.67043   0.66216
C          C       0.14847   0.32957   0.83784
C          C       0.83588   0.64152   0.73885
C          C       0.16412   0.35848   0.76115
C          C       0.77677   0.63606   0.83956
C          C       0.22323   0.36394   0.66044
C          C       0.73474   0.65878   0.85933
C          C       0.26526   0.34122   0.64067
C          C       0.63928   0.66729   0.74089
C          C       0.36072   0.33271   0.75911
C          C       0.62250   0.63908   0.76742
C          C       0.37750   0.36092   0.73257
C          C       0.57610   0.62661   0.91296
C          C       0.42390   0.37339   0.58704
C          C       0.54859   0.64196   0.53652
C          C       0.45141   0.35804   0.96348
C          C       0.56918   0.66897   0.51622
C          C       0.43082   0.33103   0.98378
C          C       0.53564   0.76232   0.74635
C          C       0.46436   0.23768   0.75365
C          C       0.47711   0.76631   0.76380
C          C       0.52289   0.23369   0.73620
C          C       0.43265   0.74983   0.90139
C          C       0.56735   0.25017   0.59861
C          C       0.44767   0.73187   0.52675
C          C       0.55233   0.26813   0.97325
C          C       0.50570   0.72928   0.51035
C          C       0.49430   0.27072   0.98965
C          C       0.56058   0.59680   0.93697
C          C       0.43942   0.40320   0.56303
N          N       0.52833   0.59200   0.86921
N          N       0.47167   0.40800   0.63079
C          C       0.88113   0.61756   0.71042
C          C       0.11887   0.38244   0.78958
N          N       0.86953   0.59105   0.79912
N          N       0.13047   0.40895   0.70088
C          C       0.93753   0.77828   0.66451
C          C       0.06247   0.22172   0.83549
N          N       0.96369   0.76134   0.75214
N          N       0.03631   0.23866   0.74786
C          C       0.37098   0.75043   0.91904
C          C       0.62902   0.24957   0.58096
N          N       0.35367   0.76580   0.80593
N          N       0.64633   0.23420   0.69407
C          C       0.51091   0.98429   0.74714
C          C       0.48909   0.01571   0.75286
C          C       0.55551   0.97681   0.60241
C          C       0.44449   0.02319   0.89759
C          C       0.57539   0.94791   0.59837
C          C       0.42461   0.05209   0.90163
C          C       0.55147   0.92521   0.73869
C          C       0.44853   0.07479   0.76131
C          C       0.50763   0.93224   0.88182
C          C       0.49237   0.06776   0.61818
C          C       0.48761   0.96095   0.88674
C          C       0.51239   0.03905   0.61326
N          N       0.56935   0.89499   0.74384
N          N       0.43065   0.10501   0.75616
C          C       0.60889   0.88307   0.62779
C          C       0.39111   0.11693   0.87221
C          C       0.29572   0.76636   0.80883
C          C       0.70428   0.23364   0.69117
C          C       0.01993   0.76395   0.75169
C          C       0.98007   0.23605   0.74831
C          C       0.90879   0.56592   0.78189
C          C       0.09121   0.43408   0.71811
C          C       0.51824   0.56445   0.85370
C          C       0.48176   0.43555   0.64630
C          C       0.05017   0.78996   0.68827
C          C       0.94983   0.21004   0.81173
C          C       0.10305   0.79125   0.70247
C          C       0.89695   0.20875   0.79753
C          C       0.12753   0.76651   0.77856
C          C       0.87247   0.23349   0.72144
C          C       0.09671   0.74059   0.83957
C          C       0.90329   0.25941   0.66043
C          C       0.04373   0.73957   0.82791
C          C       0.95627   0.26043   0.67209
C          C       0.28224   0.78710   0.68893
C          C       0.71776   0.21290   0.81107
C          C       0.22800   0.78760   0.68007
C          C       0.77200   0.21240   0.81993
C          C       0.18492   0.76724   0.79220
C          C       0.81508   0.23276   0.70780
C          C       0.19842   0.74676   0.91465
C          C       0.80158   0.25324   0.58535
C          C       0.25286   0.74609   0.92185
C          C       0.74714   0.25391   0.57815
C          C       0.89591   0.54172   0.91509
C          C       0.10409   0.45828   0.58491
C          C       0.93117   0.51635   0.90395
C          C       0.06883   0.48365   0.59605
C          C       0.98094   0.51391   0.75656
C          C       0.01906   0.48609   0.74344
C          C       0.99310   0.53865   0.62191
C          C       0.00690   0.46135   0.87809
C          C       0.95779   0.56408   0.63443
C          C       0.04221   0.43592   0.86556
C          C       0.47074   0.56210   0.82028
C          C       0.52926   0.43790   0.67973
C          C       0.46307   0.53711   0.78197
C          C       0.53693   0.46289   0.71803
C          C       0.50358   0.51342   0.77345
C          C       0.49642   0.48658   0.72655
C          C       0.55127   0.51611   0.80976
C          C       0.44873   0.48389   0.69024
C          C       0.55845   0.54116   0.84886
C          C       0.44155   0.45884   0.65114
H          H       0.03245   0.80936   0.63154
H          H       0.96755   0.19064   0.86846
H          H       0.12407   0.81182   0.65591
H          H       0.87593   0.18818   0.84410
H          H       0.11364   0.72070   0.89454
H          H       0.88636   0.27930   0.60546
H          H       0.02075   0.71946   0.87846
H          H       0.97925   0.28054   0.62154
H          H       0.02928   0.53888   0.50379
H          H       0.97072   0.46112   0.99621
H          H       0.56056   0.78979   0.93431
H          H       0.43944   0.21021   0.56569
H          H       0.54648   0.84150   0.89683
H          H       0.45352   0.15850   0.60317
H          H       0.69054   0.85078   0.91890
H          H       0.30946   0.14922   0.58110
H          H       0.70488   0.79756   0.97518
H          H       0.29512   0.20244   0.52482
H          H       0.78021   0.79025   0.51948
H          H       0.21979   0.20975   0.98052
H          H       0.87253   0.80500   0.98762
H          H       0.12747   0.19500   0.51238
H          H       0.87070   0.73453   0.88485
H          H       0.12930   0.26547   0.61515
H          H       0.76917   0.72377   0.94967
H          H       0.23083   0.27623   0.55033
H          H       0.82370   0.71445   0.62760
H          H       0.17630   0.28555   0.87240
H          H       0.89693   0.67565   0.58452
H          H       0.10307   0.32435   0.91549
H          H       0.76288   0.61404   0.90117
H          H       0.23712   0.38596   0.59883
H          H       0.69076   0.65270   0.93545
H          H       0.30924   0.34730   0.56456
H          H       0.67565   0.67672   0.62923
H          H       0.32435   0.32328   0.87077
H          H       0.64538   0.62644   0.67644
H          H       0.35462   0.37356   0.82356
H          H       0.51333   0.63242   0.65177
H          H       0.48667   0.36758   0.84823
H          H       0.55337   0.67766   0.62381
H          H       0.44663   0.32234   0.87619
H          H       0.57041   0.77449   0.64456
H          H       0.42959   0.22551   0.85544
H          H       0.46669   0.78131   0.66812
H          H       0.53331   0.21869   0.83188
H          H       0.41414   0.72020   0.63962
H          H       0.58586   0.27980   0.86038
H          H       0.51399   0.71815   0.61656
H          H       0.48601   0.28185   0.88344
H          H       0.58141   0.57925   0.99667
H          H       0.41859   0.42075   0.50333
H          H       0.92471   0.62286   0.61599
H          H       0.07529   0.37714   0.88401
H          H       0.95896   0.79717   0.57115
H          H       0.04104   0.20283   0.92885
H          H       0.34056   0.73694   0.53070
H          H       0.65944   0.26306   0.96930
H          H       0.57568   0.99288   0.98926
H          H       0.42432   0.00712   0.51075
H          H       0.60900   0.94353   0.98457
H          H       0.39100   0.05647   0.51543
H          H       0.48901   0.91509   0.99175
H          H       0.51099   0.08491   0.50824
H          H       0.45406   0.96423   0.50282
H          H       0.54594   0.03577   0.99718
H          H       0.63414   0.89618   0.50648
H          H       0.36586   0.10382   0.99352
H          H       0.31491   0.80252   0.59859
H          H       0.68509   0.19748   0.90141
H          H       0.22111   0.80328   0.58053
H          H       0.77889   0.19672   0.91948
H          H       0.16675   0.73116   0.50740
H          H       0.83325   0.26884   0.99261
H          H       0.26075   0.72951   0.51626
H          H       0.73925   0.27049   0.98374
H          H       0.85822   0.54273   0.52963
H          H       0.14178   0.45727   0.97038
H          H       0.91827   0.49896   0.51345
H          H       0.08173   0.50104   0.98655
H          H       0.96799   0.58193   0.52668
H          H       0.03201   0.41807   0.97332
H          H       0.44027   0.58025   0.81943
H          H       0.55973   0.41975   0.68057
H          H       0.42562   0.53733   0.75588
H          H       0.57438   0.46267   0.74411
H          H       0.58417   0.49930   0.80797
H          H       0.41583   0.50070   0.69203
H          H       0.59661   0.54256   0.86974
H          H       0.40339   0.45744   0.63026
