data_crystal

_cell_length_a    20.60000
_cell_length_b    40.80000
_cell_length_c    9.40000
_cell_angle_alpha 70.40000
_cell_angle_beta  64.50000
_cell_angle_gamma 80.30000

_space_group_name_Hall 'P 1'
_space_group_name_H-M_alt 'P 1'

loop_
_symmetry_equiv_pos_as_xyz
 'x,y,z'

loop_
_atom_site_label
_atom_site_type_symbol
_atom_site_fract_x
_atom_site_fract_y
_atom_site_fract_z
C          C       0.55919   0.00359   0.27929
C          C       0.44081   0.99641   0.22071
C          C       0.12928   0.23804   0.21584
C          C       0.87072   0.76196   0.28416
C          C       0.60262   0.23814   0.27750
C          C       0.39738   0.76186   0.22250
C          C       0.63823   0.20521   0.28456
C          C       0.36177   0.79479   0.21544
C          C       0.71093   0.21034   0.23661
C          C       0.28907   0.78966   0.26339
C          C       0.71652   0.24653   0.20402
C          C       0.28348   0.75347   0.29598
N          N       0.65055   0.26392   0.22664
N          N       0.34945   0.73608   0.27336
C          C       0.52406   0.24352   0.30832
C          C       0.47594   0.75648   0.19168
C          C       0.60651   0.17070   0.32776
C          C       0.39349   0.82930   0.17224
C          C       0.76986   0.18179   0.22520
C          C       0.23014   0.81821   0.27480
C          C       0.78518   0.26252   0.16261
C          C       0.21482   0.73748   0.33739
C          C       0.63482   0.30199   0.20286
C          C       0.36518   0.69801   0.29714
C          C       0.56775   0.31529   0.29771
C          C       0.43225   0.68471   0.20229
C          C       0.55367   0.35116   0.28445
C          C       0.44633   0.64884   0.21555
C          C       0.60571   0.37596   0.16972
C          C       0.39429   0.62404   0.33028
C          C       0.67158   0.36345   0.06742
C          C       0.32842   0.63655   0.43257
C          C       0.68564   0.32746   0.08353
C          C       0.31436   0.67254   0.41646
C          C       0.85156   0.25204   0.05364
C          C       0.14844   0.74796   0.44636
C          C       0.91655   0.26167   0.04012
C          C       0.08345   0.73833   0.45988
C          C       0.91672   0.28450   0.12372
C          C       0.08328   0.71550   0.37628
C          C       0.85081   0.29808   0.21782
C          C       0.14919   0.70192   0.28219
C          C       0.78581   0.28574   0.24396
C          C       0.21419   0.71426   0.25604
C          C       0.77060   0.15430   0.16401
C          C       0.22940   0.84570   0.33598
C          C       0.81761   0.12506   0.17572
C          C       0.18239   0.87494   0.32428
C          C       0.86967   0.12341   0.23755
C          C       0.13033   0.87659   0.26245
C          C       0.87343   0.15206   0.28565
C          C       0.12657   0.84794   0.21435
C          C       0.82308   0.18016   0.28447
C          C       0.17692   0.81984   0.21553
C          C       0.62818   0.14021   0.42513
C          C       0.37182   0.85979   0.07487
C          C       0.61019   0.10732   0.43929
C          C       0.38981   0.89268   0.06071
C          C       0.56517   0.10391   0.36748
C          C       0.43483   0.89609   0.13252
C          C       0.53670   0.13439   0.28563
C          C       0.46330   0.86561   0.21437
C          C       0.55978   0.16728   0.26007
C          C       0.44022   0.83272   0.23993
C          C       0.47173   0.22013   0.43828
C          C       0.52827   0.77987   0.06172
C          C       0.40134   0.22219   0.44863
C          C       0.59866   0.77781   0.05137
C          C       0.38081   0.24812   0.33126
C          C       0.61919   0.75188   0.16874
C          C       0.43099   0.27310   0.20943
C          C       0.56901   0.72690   0.29058
C          C       0.50174   0.27047   0.19821
C          C       0.49826   0.72953   0.30179
C          C       0.59286   0.41463   0.15046
C          C       0.40714   0.58537   0.34954
N          N       0.53745   0.42765   0.25595
N          N       0.46255   0.57235   0.24405
C          C       0.52019   0.46432   0.25002
C          C       0.47981   0.53568   0.24998
C          C       0.46637   0.47266   0.39073
C          C       0.53363   0.52734   0.10927
C          C       0.55354   0.49236   0.10835
C          C       0.44646   0.50764   0.39165
C          C       0.55437   0.06861   0.36832
C          C       0.44563   0.93139   0.13168
N          N       0.51426   0.06351   0.30134
N          N       0.48574   0.93649   0.19866
C          C       0.50685   0.03079   0.28162
C          C       0.49315   0.96921   0.21838
C          C       0.91911   0.09217   0.25696
C          C       0.08089   0.90783   0.24304
N          N       0.91594   0.06434   0.21981
N          N       0.08406   0.93566   0.28019
C          C       0.95924   0.03224   0.23622
C          C       0.04076   0.96776   0.26378
C          C       0.01759   0.02762   0.28308
C          C       0.98241   0.97238   0.21692
C          C       0.94262   0.00422   0.20325
C          C       0.05738   0.99578   0.29675
C          C       0.44815   0.02687   0.25086
C          C       0.55185   0.97313   0.24914
C          C       0.98399   0.29162   0.12765
C          C       0.01601   0.70838   0.37235
N          N       0.03458   0.26760   0.12418
N          N       0.96542   0.73240   0.37582
C          C       0.09826   0.26923   0.14850
C          C       0.90174   0.73077   0.35150
C          C       0.13049   0.30078   0.10665
C          C       0.86951   0.69922   0.39336
C          C       0.30898   0.24721   0.33191
C          C       0.69102   0.75279   0.16809
N          N       0.28796   0.27060   0.22416
N          N       0.71204   0.72940   0.27584
C          C       0.22239   0.26966   0.20568
C          C       0.77761   0.73034   0.29432
C          C       0.19256   0.30082   0.13365
C          C       0.80744   0.69918   0.36635
C          C       0.19035   0.23811   0.24583
C          C       0.80965   0.76189   0.25417
H          H       0.60627   0.00583   0.29806
H          H       0.39373   0.99417   0.20194
H          H       0.10529   0.21363   0.24637
H          H       0.89471   0.78637   0.25363
H          H       0.52480   0.29797   0.38217
H          H       0.47520   0.70203   0.11783
H          H       0.50156   0.35963   0.36266
H          H       0.49844   0.64037   0.13734
H          H       0.71298   0.38164   0.47486
H          H       0.28702   0.61836   0.02514
H          H       0.73731   0.31982   0.00293
H          H       0.26269   0.68018   0.49707
H          H       0.85326   0.23481   0.48528
H          H       0.14674   0.76519   0.01472
H          H       0.96684   0.25093   0.46656
H          H       0.03316   0.74907   0.03344
H          H       0.84991   0.31573   0.28342
H          H       0.15009   0.68427   0.21658
H          H       0.73556   0.29347   0.33074
H          H       0.26444   0.70653   0.16926
H          H       0.73259   0.15477   0.11169
H          H       0.26741   0.84523   0.38831
H          H       0.81374   0.10380   0.13484
H          H       0.18626   0.89620   0.36516
H          H       0.91329   0.15192   0.33278
H          H       0.08671   0.84808   0.16722
H          H       0.82441   0.20003   0.33620
H          H       0.17559   0.79997   0.16380
H          H       0.66281   0.14168   0.48306
H          H       0.33719   0.85832   0.01694
H          H       0.63259   0.08441   0.00462
H          H       0.36741   0.91559   0.49538
H          H       0.50150   0.13257   0.22957
H          H       0.49850   0.86743   0.27043
H          H       0.54356   0.19015   0.18233
H          H       0.45644   0.80985   0.31766
H          H       0.48578   0.19887   0.02660
H          H       0.51422   0.80113   0.47340
H          H       0.36341   0.20284   0.04582
H          H       0.63659   0.79716   0.45418
H          H       0.41573   0.29392   0.12026
H          H       0.58427   0.70608   0.37974
H          H       0.54026   0.28947   0.10438
H          H       0.45974   0.71053   0.39562
H          H       0.63323   0.43181   0.04648
H          H       0.36677   0.56819   0.45352
H          H       0.44032   0.45169   0.00162
H          H       0.55968   0.54831   0.49838
H          H       0.59386   0.48756   0.49544
H          H       0.40614   0.51244   0.00456
H          H       0.58309   0.04694   0.42269
H          H       0.41691   0.95306   0.07731
H          H       0.95670   0.09296   0.30847
H          H       0.04330   0.90704   0.19153
H          H       0.03287   0.04823   0.30985
H          H       0.96713   0.95177   0.19015
H          H       0.89841   0.00728   0.16584
H          H       0.10159   0.99272   0.33415
H          H       0.40821   0.04779   0.24934
H          H       0.59179   0.95221   0.25066
H          H       0.98574   0.31473   0.15846
H          H       0.01426   0.68527   0.34154
H          H       0.10884   0.32515   0.04990
H          H       0.89116   0.67485   0.45010
H          H       0.27472   0.22583   0.42240
H          H       0.72528   0.77417   0.07760
H          H       0.21788   0.32512   0.09841
H          H       0.78212   0.67488   0.40159
H          H       0.21356   0.21350   0.29528
H          H       0.78644   0.78650   0.20472
C          C       0.55919   0.00359   0.77929
C          C       0.44081   0.99641   0.72071
C          C       0.12928   0.23804   0.71584
C          C       0.87072   0.76196   0.78416
C          C       0.60262   0.23814   0.77750
C          C       0.39738   0.76186   0.72250
C          C       0.63823   0.20521   0.78456
C          C       0.36177   0.79479   0.71544
C          C       0.71093   0.21034   0.73661
C          C       0.28907   0.78966   0.76339
C          C       0.71652   0.24653   0.70402
C          C       0.28348   0.75347   0.79598
N          N       0.65055   0.26392   0.72663
N          N       0.34945   0.73608   0.77336
C          C       0.52406   0.24352   0.80832
C          C       0.47594   0.75648   0.69168
C          C       0.60651   0.17070   0.82776
C          C       0.39349   0.82930   0.67224
C          C       0.76986   0.18179   0.72520
C          C       0.23014   0.81821   0.77480
C          C       0.78518   0.26252   0.66261
C          C       0.21482   0.73748   0.83739
C          C       0.63482   0.30199   0.70286
C          C       0.36518   0.69801   0.79714
C          C       0.56775   0.31529   0.79771
C          C       0.43225   0.68471   0.70229
C          C       0.55367   0.35116   0.78445
C          C       0.44633   0.64884   0.71555
C          C       0.60571   0.37596   0.66972
C          C       0.39429   0.62404   0.83028
C          C       0.67158   0.36345   0.56743
C          C       0.32842   0.63655   0.93258
C          C       0.68564   0.32746   0.58353
C          C       0.31436   0.67254   0.91646
C          C       0.85156   0.25204   0.55365
C          C       0.14844   0.74796   0.94635
C          C       0.91655   0.26167   0.54012
C          C       0.08345   0.73833   0.95988
C          C       0.91672   0.28450   0.62373
C          C       0.08328   0.71550   0.87627
C          C       0.85081   0.29808   0.71781
C          C       0.14919   0.70192   0.78219
C          C       0.78581   0.28574   0.74396
C          C       0.21419   0.71426   0.75604
C          C       0.77060   0.15430   0.66401
C          C       0.22940   0.84570   0.83599
C          C       0.81761   0.12506   0.67571
C          C       0.18239   0.87494   0.82429
C          C       0.86967   0.12341   0.73755
C          C       0.13033   0.87659   0.76245
C          C       0.87343   0.15206   0.78565
C          C       0.12657   0.84794   0.71435
C          C       0.82308   0.18016   0.78447
C          C       0.17692   0.81984   0.71553
C          C       0.62818   0.14021   0.92513
C          C       0.37182   0.85979   0.57487
C          C       0.61019   0.10732   0.93929
C          C       0.38981   0.89268   0.56071
C          C       0.56517   0.10391   0.86748
C          C       0.43483   0.89609   0.63252
C          C       0.53670   0.13439   0.78563
C          C       0.46330   0.86561   0.71437
C          C       0.55978   0.16728   0.76007
C          C       0.44022   0.83272   0.73993
C          C       0.47173   0.22013   0.93828
C          C       0.52827   0.77987   0.56172
C          C       0.40134   0.22219   0.94863
C          C       0.59866   0.77781   0.55137
C          C       0.38081   0.24812   0.83126
C          C       0.61919   0.75188   0.66874
C          C       0.43099   0.27310   0.70942
C          C       0.56901   0.72690   0.79058
C          C       0.50174   0.27047   0.69821
C          C       0.49826   0.72953   0.80179
C          C       0.59286   0.41463   0.65046
C          C       0.40714   0.58537   0.84954
N          N       0.53745   0.42765   0.75595
N          N       0.46255   0.57235   0.74405
C          C       0.52019   0.46432   0.75002
C          C       0.47981   0.53568   0.74998
C          C       0.46637   0.47266   0.89074
C          C       0.53363   0.52734   0.60926
C          C       0.55354   0.49236   0.60835
C          C       0.44646   0.50764   0.89165
C          C       0.55437   0.06861   0.86832
C          C       0.44563   0.93139   0.63168
N          N       0.51426   0.06351   0.80135
N          N       0.48574   0.93649   0.69866
C          C       0.50685   0.03079   0.78162
C          C       0.49315   0.96921   0.71838
C          C       0.91911   0.09217   0.75696
C          C       0.08089   0.90783   0.74304
N          N       0.91594   0.06434   0.71981
N          N       0.08406   0.93566   0.78019
C          C       0.95924   0.03224   0.73622
C          C       0.04076   0.96776   0.76378
C          C       0.01759   0.02762   0.78308
C          C       0.98241   0.97238   0.71692
C          C       0.94262   0.00422   0.70325
C          C       0.05738   0.99578   0.79675
C          C       0.44815   0.02687   0.75086
C          C       0.55185   0.97313   0.74914
C          C       0.98399   0.29162   0.62765
C          C       0.01601   0.70838   0.87235
N          N       0.03458   0.26760   0.62418
N          N       0.96542   0.73240   0.87582
C          C       0.09826   0.26923   0.64850
C          C       0.90174   0.73077   0.85150
C          C       0.13049   0.30078   0.60664
C          C       0.86951   0.69922   0.89336
C          C       0.30898   0.24721   0.83191
C          C       0.69102   0.75279   0.66809
N          N       0.28796   0.27060   0.72416
N          N       0.71204   0.72940   0.77584
C          C       0.22239   0.26966   0.70568
C          C       0.77761   0.73034   0.79432
C          C       0.19256   0.30082   0.63365
C          C       0.80744   0.69918   0.86635
C          C       0.19035   0.23811   0.74583
C          C       0.80965   0.76189   0.75417
H          H       0.60627   0.00583   0.79806
H          H       0.39373   0.99417   0.70194
H          H       0.10529   0.21363   0.74637
H          H       0.89471   0.78637   0.75363
H          H       0.52480   0.29797   0.88217
H          H       0.47520   0.70203   0.61783
H          H       0.50156   0.35963   0.86266
H          H       0.49844   0.64037   0.63734
H          H       0.71298   0.38164   0.97486
H          H       0.28702   0.61836   0.52514
H          H       0.73731   0.31982   0.50292
H          H       0.26269   0.68018   0.99708
H          H       0.85326   0.23481   0.98528
H          H       0.14674   0.76519   0.51472
H          H       0.96684   0.25093   0.96656
H          H       0.03316   0.74907   0.53344
H          H       0.84991   0.31573   0.78343
H          H       0.15009   0.68427   0.71657
H          H       0.73556   0.29347   0.83074
H          H       0.26444   0.70653   0.66926
H          H       0.73259   0.15477   0.61169
H          H       0.26741   0.84523   0.88831
H          H       0.81374   0.10380   0.63484
H          H       0.18626   0.89620   0.86516
H          H       0.91329   0.15192   0.83278
H          H       0.08671   0.84808   0.66722
H          H       0.82441   0.20003   0.83620
H          H       0.17559   0.79997   0.66380
H          H       0.66281   0.14168   0.98306
H          H       0.33719   0.85832   0.51694
H          H       0.63259   0.08441   0.50462
H          H       0.36741   0.91559   0.99538
H          H       0.50150   0.13257   0.72957
H          H       0.49850   0.86743   0.77043
H          H       0.54356   0.19015   0.68234
H          H       0.45644   0.80985   0.81766
H          H       0.48578   0.19887   0.52660
H          H       0.51422   0.80113   0.97340
H          H       0.36341   0.20284   0.54582
H          H       0.63659   0.79716   0.95418
H          H       0.41573   0.29392   0.62026
H          H       0.58427   0.70608   0.87974
H          H       0.54026   0.28947   0.60438
H          H       0.45974   0.71053   0.89562
H          H       0.63323   0.43181   0.54648
H          H       0.36677   0.56819   0.95352
H          H       0.44032   0.45169   0.50162
H          H       0.55968   0.54831   0.99838
H          H       0.59386   0.48756   0.99544
H          H       0.40614   0.51244   0.50456
H          H       0.58309   0.04694   0.92269
H          H       0.41691   0.95306   0.57731
H          H       0.95670   0.09296   0.80847
H          H       0.04330   0.90704   0.69153
H          H       0.03287   0.04823   0.80985
H          H       0.96713   0.95177   0.69015
H          H       0.89841   0.00728   0.66584
H          H       0.10159   0.99272   0.83415
H          H       0.40821   0.04779   0.74935
H          H       0.59179   0.95221   0.75065
H          H       0.98574   0.31473   0.65846
H          H       0.01426   0.68527   0.84154
H          H       0.10884   0.32515   0.54990
H          H       0.89116   0.67485   0.95010
H          H       0.27472   0.22583   0.92240
H          H       0.72528   0.77417   0.57760
H          H       0.21788   0.32512   0.59841
H          H       0.78212   0.67488   0.90159
H          H       0.21356   0.21350   0.79527
H          H       0.78644   0.78650   0.70473
