data_crystal

_cell_length_a    20.10000
_cell_length_b    39.50000
_cell_length_c    9.40000
_cell_angle_alpha 72.60000
_cell_angle_beta  64.20000
_cell_angle_gamma 80.80000

_space_group_name_Hall 'P 1'
_space_group_name_H-M_alt 'P 1'

loop_
_symmetry_equiv_pos_as_xyz
 'x,y,z'

loop_
_atom_site_label
_atom_site_type_symbol
_atom_site_fract_x
_atom_site_fract_y
_atom_site_fract_z
C          C       0.45007   0.02915   0.24296
C          C       0.54993   0.97085   0.25704
C          C       0.14185   0.24385   0.17527
C          C       0.85815   0.75615   0.32473
C          C       0.61985   0.24128   0.24629
C          C       0.38015   0.75872   0.25372
C          C       0.65684   0.20825   0.25562
C          C       0.34316   0.79175   0.24438
C          C       0.73111   0.21460   0.19880
C          C       0.26889   0.78540   0.30120
C          C       0.73647   0.25132   0.15851
C          C       0.26353   0.74868   0.34149
N          N       0.66850   0.26798   0.18594
N          N       0.33150   0.73202   0.31405
C          C       0.54052   0.24622   0.27557
C          C       0.45948   0.75378   0.22443
C          C       0.62493   0.17304   0.30209
C          C       0.37507   0.82696   0.19791
C          C       0.79215   0.18703   0.18298
C          C       0.20785   0.81297   0.31702
C          C       0.80597   0.26888   0.10775
C          C       0.19403   0.73112   0.39225
C          C       0.65130   0.30626   0.15925
C          C       0.34870   0.69374   0.34075
C          C       0.58284   0.31952   0.25727
C          C       0.41716   0.68048   0.24273
C          C       0.56738   0.35574   0.24162
C          C       0.43262   0.64426   0.25838
C          C       0.61987   0.38035   0.12391
C          C       0.38013   0.61965   0.37609
C          C       0.68702   0.36800   0.01892
C          C       0.31298   0.63200   0.48108
C          C       0.70234   0.33151   0.03637
C          C       0.29766   0.66849   0.46363
C          C       0.87259   0.25914   0.49053
C          C       0.12741   0.74086   0.00948
C          C       0.93932   0.27128   0.46479
C          C       0.06068   0.72872   0.03521
C          C       0.93998   0.29498   0.04861
C          C       0.06002   0.70502   0.45139
C          C       0.87305   0.30749   0.15346
C          C       0.12695   0.69251   0.34654
C          C       0.80679   0.29338   0.18721
C          C       0.19321   0.70662   0.31279
C          C       0.79378   0.15881   0.12014
C          C       0.20622   0.84119   0.37987
C          C       0.84316   0.12995   0.12798
C          C       0.15684   0.87005   0.37202
C          C       0.89487   0.12952   0.19128
C          C       0.10513   0.87048   0.30872
C          C       0.89819   0.15918   0.24003
C          C       0.10181   0.84082   0.25997
C          C       0.84609   0.18730   0.23952
C          C       0.15391   0.81270   0.26048
C          C       0.64712   0.14320   0.39922
C          C       0.35288   0.85680   0.10078
C          C       0.62530   0.10936   0.42334
C          C       0.37470   0.89064   0.07666
C          C       0.57832   0.10495   0.35629
C          C       0.42168   0.89505   0.14371
C          C       0.55166   0.13502   0.26938
C          C       0.44834   0.86498   0.23062
C          C       0.57685   0.16850   0.23808
C          C       0.42315   0.83150   0.26192
C          C       0.48552   0.22534   0.41202
C          C       0.51448   0.77466   0.08798
C          C       0.41289   0.22796   0.42555
C          C       0.58711   0.77204   0.07445
C          C       0.39400   0.25217   0.30497
C          C       0.60600   0.74783   0.19503
C          C       0.44791   0.27446   0.17446
C          C       0.55209   0.72554   0.32554
C          C       0.52066   0.27075   0.15863
C          C       0.47934   0.72925   0.34137
C          C       0.60544   0.41863   0.11275
C          C       0.39456   0.58137   0.38725
N          N       0.54664   0.42942   0.22268
N          N       0.45336   0.57058   0.27732
C          C       0.52392   0.46524   0.23419
C          C       0.47608   0.53476   0.26582
C          C       0.46628   0.47075   0.37981
C          C       0.53372   0.52925   0.12019
C          C       0.55670   0.49467   0.10476
C          C       0.44330   0.50533   0.39524
C          C       0.56293   0.06897   0.36540
C          C       0.43707   0.93103   0.13460
N          N       0.52357   0.06456   0.29397
N          N       0.47643   0.93544   0.20603
C          C       0.51038   0.03146   0.27842
C          C       0.48962   0.96854   0.22158
C          C       0.94154   0.09747   0.21718
C          C       0.05846   0.90253   0.28282
N          N       0.93136   0.06858   0.19120
N          N       0.06864   0.93142   0.30880
C          C       0.96718   0.03424   0.21998
C          C       0.03282   0.96576   0.28002
C          C       0.02907   0.02897   0.25770
C          C       0.97093   0.97103   0.24230
C          C       0.93823   0.00495   0.21191
C          C       0.06177   0.99505   0.28809
C          C       0.56004   0.00224   0.28373
C          C       0.43996   0.99776   0.21627
C          C       0.00913   0.30165   0.05037
C          C       0.99087   0.69835   0.44963
N          N       0.05753   0.27569   0.05040
N          N       0.94247   0.72431   0.44960
C          C       0.12015   0.27552   0.08507
C          C       0.87985   0.72448   0.41493
C          C       0.15900   0.30648   0.03358
C          C       0.84100   0.69352   0.46642
C          C       0.32041   0.25210   0.30751
C          C       0.67959   0.74790   0.19249
N          N       0.30395   0.27457   0.19431
N          N       0.69605   0.72543   0.30569
C          C       0.23903   0.27507   0.16692
C          C       0.76097   0.72493   0.33308
C          C       0.21887   0.30638   0.07211
C          C       0.78113   0.69362   0.42789
C          C       0.20043   0.24402   0.21705
C          C       0.79957   0.75598   0.28295
C          C       0.89672   0.79049   0.26855
C          C       0.10328   0.20951   0.23145
C          C       0.73814   0.66049   0.49048
C          C       0.26186   0.33951   0.00952
C          C       0.39559   0.05964   0.23092
C          C       0.60441   0.94036   0.26909
C          C       0.87135   0.00966   0.17388
C          C       0.12865   0.99034   0.32612
C          C       0.42921   0.43973   0.01973
C          C       0.57079   0.56027   0.48027
H          H       0.92088   0.79935   0.13336
H          H       0.07912   0.20065   0.36664
H          H       0.94203   0.78775   0.30902
H          H       0.05797   0.21225   0.19098
H          H       0.85643   0.81111   0.31882
H          H       0.14357   0.18889   0.18118
H          H       0.76121   0.63809   0.06149
H          H       0.23879   0.36191   0.43851
H          H       0.73898   0.65267   0.38604
H          H       0.26102   0.34733   0.11396
H          H       0.67991   0.66596   0.07040
H          H       0.32009   0.33404   0.42960
H          H       0.47144   0.42234   0.05566
H          H       0.52856   0.57766   0.44434
H          H       0.40197   0.42414   0.48091
H          H       0.59803   0.57586   0.01909
H          H       0.38727   0.44823   0.12795
H          H       0.61273   0.55177   0.37205
H          H       0.05268   0.05103   0.26237
H          H       0.94732   0.94897   0.23763
H          H       0.01238   0.32502   0.08425
H          H       0.98762   0.67498   0.41575
H          H       0.14368   0.33034   0.45991
H          H       0.85632   0.66966   0.04009
H          H       0.33910   0.05153   0.32167
H          H       0.66090   0.94847   0.17833
H          H       0.39682   0.06745   0.10649
H          H       0.60318   0.93255   0.39351
H          H       0.40876   0.08322   0.25335
H          H       0.59124   0.91678   0.24665
H          H       0.53997   0.30207   0.34615
H          H       0.46003   0.69793   0.15385
H          H       0.51431   0.36454   0.32252
H          H       0.48569   0.63546   0.17748
H          H       0.72833   0.38652   0.42563
H          H       0.27167   0.61348   0.07437
H          H       0.75556   0.32347   0.45656
H          H       0.24444   0.67653   0.04344
H          H       0.87343   0.24061   0.42567
H          H       0.12657   0.75939   0.07433
H          H       0.99075   0.26111   0.38499
H          H       0.00925   0.73889   0.11500
H          H       0.87281   0.32548   0.22059
H          H       0.12719   0.67452   0.27941
H          H       0.75547   0.30061   0.27759
H          H       0.24453   0.69939   0.22241
H          H       0.75453   0.15840   0.07081
H          H       0.24547   0.84160   0.42919
H          H       0.84027   0.10767   0.08658
H          H       0.15973   0.89233   0.41341
H          H       0.93808   0.15962   0.28807
H          H       0.06192   0.84038   0.21193
H          H       0.84594   0.20852   0.28984
H          H       0.15406   0.79148   0.21016
H          H       0.68385   0.14590   0.45114
H          H       0.31615   0.85410   0.04886
H          H       0.64612   0.08657   0.49208
H          H       0.35388   0.91343   0.00792
H          H       0.51548   0.13226   0.21582
H          H       0.48452   0.86774   0.28418
H          H       0.56136   0.19074   0.15809
H          H       0.43864   0.80926   0.34191
H          H       0.49910   0.20604   0.00448
H          H       0.50090   0.79396   0.49552
H          H       0.37185   0.21072   0.02825
H          H       0.62815   0.78928   0.47175
H          H       0.43395   0.29368   0.08158
H          H       0.56605   0.70632   0.41842
H          H       0.56284   0.28702   0.05636
H          H       0.43716   0.71298   0.44364
H          H       0.64595   0.43700   0.01616
H          H       0.35405   0.56300   0.48384
H          H       0.59919   0.49101   0.49068
H          H       0.40081   0.50899   0.00932
H          H       0.58705   0.04651   0.42803
H          H       0.41295   0.95349   0.07197
H          H       0.97967   0.09793   0.26941
H          H       0.02033   0.90207   0.23059
H          H       0.60778   0.00381   0.30560
H          H       0.39222   0.99619   0.19440
H          H       0.28222   0.23218   0.39982
H          H       0.71778   0.76782   0.10018
H          H       0.21726   0.21948   0.28369
H          H       0.78274   0.78052   0.21631
H          H       0.85705   0.98462   0.16495
H          H       0.14295   0.01538   0.33505
H          H       0.88225   0.02977   0.05595
H          H       0.11775   0.97023   0.44405
H          H       0.82339   0.01926   0.27065
H          H       0.17661   0.98074   0.22935
C          C       0.45007   0.02915   0.74296
C          C       0.54993   0.97085   0.75704
C          C       0.14185   0.24385   0.67527
C          C       0.85815   0.75615   0.82473
C          C       0.61985   0.24128   0.74629
C          C       0.38015   0.75872   0.75371
C          C       0.65684   0.20825   0.75562
C          C       0.34316   0.79175   0.74438
C          C       0.73111   0.21460   0.69880
C          C       0.26889   0.78540   0.80120
C          C       0.73647   0.25132   0.65851
C          C       0.26353   0.74868   0.84149
N          N       0.66850   0.26798   0.68595
N          N       0.33150   0.73202   0.81405
C          C       0.54052   0.24622   0.77557
C          C       0.45948   0.75378   0.72443
C          C       0.62493   0.17304   0.80209
C          C       0.37507   0.82696   0.69791
C          C       0.79215   0.18703   0.68298
C          C       0.20785   0.81297   0.81702
C          C       0.80597   0.26888   0.60775
C          C       0.19403   0.73112   0.89225
C          C       0.65130   0.30626   0.65925
C          C       0.34870   0.69374   0.84075
C          C       0.58284   0.31952   0.75727
C          C       0.41716   0.68048   0.74273
C          C       0.56738   0.35574   0.74162
C          C       0.43262   0.64426   0.75838
C          C       0.61987   0.38035   0.62391
C          C       0.38013   0.61965   0.87609
C          C       0.68702   0.36800   0.51892
C          C       0.31298   0.63200   0.98108
C          C       0.70234   0.33151   0.53637
C          C       0.29766   0.66849   0.96363
C          C       0.87259   0.25914   0.99052
C          C       0.12741   0.74086   0.50948
C          C       0.93932   0.27128   0.96479
C          C       0.06068   0.72872   0.53521
C          C       0.93998   0.29498   0.54861
C          C       0.06002   0.70502   0.95139
C          C       0.87305   0.30749   0.65346
C          C       0.12695   0.69251   0.84654
C          C       0.80679   0.29338   0.68721
C          C       0.19321   0.70662   0.81279
C          C       0.79378   0.15881   0.62013
C          C       0.20622   0.84119   0.87987
C          C       0.84316   0.12995   0.62798
C          C       0.15684   0.87005   0.87202
C          C       0.89487   0.12952   0.69128
C          C       0.10513   0.87048   0.80872
C          C       0.89819   0.15918   0.74003
C          C       0.10181   0.84082   0.75997
C          C       0.84609   0.18730   0.73952
C          C       0.15391   0.81270   0.76048
C          C       0.64712   0.14320   0.89922
C          C       0.35288   0.85680   0.60078
C          C       0.62530   0.10936   0.92333
C          C       0.37470   0.89064   0.57666
C          C       0.57832   0.10495   0.85629
C          C       0.42168   0.89505   0.64371
C          C       0.55166   0.13502   0.76938
C          C       0.44834   0.86498   0.73062
C          C       0.57685   0.16850   0.73808
C          C       0.42315   0.83150   0.76192
C          C       0.48552   0.22534   0.91203
C          C       0.51448   0.77466   0.58798
C          C       0.41289   0.22796   0.92555
C          C       0.58711   0.77204   0.57445
C          C       0.39400   0.25217   0.80497
C          C       0.60600   0.74783   0.69503
C          C       0.44791   0.27446   0.67446
C          C       0.55209   0.72554   0.82554
C          C       0.52066   0.27075   0.65864
C          C       0.47934   0.72925   0.84137
C          C       0.60544   0.41863   0.61275
C          C       0.39456   0.58137   0.88725
N          N       0.54664   0.42942   0.72268
N          N       0.45336   0.57058   0.77732
C          C       0.52392   0.46524   0.73418
C          C       0.47608   0.53476   0.76582
C          C       0.46628   0.47075   0.87980
C          C       0.53372   0.52925   0.62020
C          C       0.55670   0.49467   0.60476
C          C       0.44330   0.50533   0.89524
C          C       0.56293   0.06897   0.86540
C          C       0.43707   0.93103   0.63460
N          N       0.52357   0.06456   0.79397
N          N       0.47643   0.93544   0.70603
C          C       0.51038   0.03146   0.77841
C          C       0.48962   0.96854   0.72159
C          C       0.94154   0.09747   0.71718
C          C       0.05846   0.90253   0.78282
N          N       0.93136   0.06858   0.69120
N          N       0.06864   0.93142   0.80880
C          C       0.96718   0.03424   0.71998
C          C       0.03282   0.96576   0.78002
C          C       0.02907   0.02897   0.75770
C          C       0.97093   0.97103   0.74230
C          C       0.93823   0.00495   0.71191
C          C       0.06177   0.99505   0.78809
C          C       0.56004   0.00224   0.78373
C          C       0.43996   0.99776   0.71627
C          C       0.00913   0.30165   0.55037
C          C       0.99087   0.69835   0.94963
N          N       0.05753   0.27569   0.55040
N          N       0.94247   0.72431   0.94960
C          C       0.12015   0.27552   0.58507
C          C       0.87985   0.72448   0.91493
C          C       0.15900   0.30648   0.53358
C          C       0.84100   0.69352   0.96642
C          C       0.32041   0.25210   0.80751
C          C       0.67959   0.74790   0.69249
N          N       0.30395   0.27457   0.69431
N          N       0.69605   0.72543   0.80569
C          C       0.23903   0.27507   0.66692
C          C       0.76097   0.72493   0.83308
C          C       0.21887   0.30638   0.57211
C          C       0.78113   0.69362   0.92789
C          C       0.20043   0.24402   0.71705
C          C       0.79957   0.75598   0.78295
C          C       0.89672   0.79049   0.76855
C          C       0.10328   0.20951   0.73145
C          C       0.73814   0.66049   0.99048
C          C       0.26186   0.33951   0.50952
C          C       0.39559   0.05964   0.73091
C          C       0.60441   0.94036   0.76909
C          C       0.87135   0.00966   0.67388
C          C       0.12865   0.99034   0.82612
C          C       0.42921   0.43973   0.51973
C          C       0.57079   0.56027   0.98027
H          H       0.92088   0.79935   0.63336
H          H       0.07912   0.20065   0.86664
H          H       0.94203   0.78775   0.80902
H          H       0.05797   0.21225   0.69098
H          H       0.85643   0.81111   0.81882
H          H       0.14357   0.18889   0.68118
H          H       0.76121   0.63809   0.56149
H          H       0.23879   0.36191   0.93851
H          H       0.73898   0.65267   0.88604
H          H       0.26102   0.34733   0.61396
H          H       0.67991   0.66596   0.57040
H          H       0.32009   0.33404   0.92960
H          H       0.47144   0.42234   0.55566
H          H       0.52856   0.57766   0.94434
H          H       0.40197   0.42414   0.98091
H          H       0.59803   0.57586   0.51909
H          H       0.38727   0.44823   0.62795
H          H       0.61273   0.55177   0.87205
H          H       0.05268   0.05103   0.76237
H          H       0.94732   0.94897   0.73763
H          H       0.01238   0.32502   0.58425
H          H       0.98762   0.67498   0.91575
H          H       0.14368   0.33034   0.95991
H          H       0.85632   0.66966   0.54009
H          H       0.33910   0.05153   0.82167
H          H       0.66090   0.94847   0.67833
H          H       0.39682   0.06745   0.60649
H          H       0.60318   0.93255   0.89351
H          H       0.40876   0.08322   0.75335
H          H       0.59124   0.91678   0.74665
H          H       0.53997   0.30207   0.84615
H          H       0.46003   0.69793   0.65385
H          H       0.51431   0.36454   0.82252
H          H       0.48569   0.63546   0.67748
H          H       0.72833   0.38652   0.92563
H          H       0.27167   0.61348   0.57437
H          H       0.75556   0.32347   0.95656
H          H       0.24444   0.67653   0.54344
H          H       0.87343   0.24061   0.92567
H          H       0.12657   0.75939   0.57433
H          H       0.99075   0.26111   0.88499
H          H       0.00925   0.73889   0.61501
H          H       0.87281   0.32548   0.72059
H          H       0.12719   0.67452   0.77941
H          H       0.75547   0.30061   0.77760
H          H       0.24453   0.69939   0.72240
H          H       0.75453   0.15840   0.57081
H          H       0.24547   0.84160   0.92919
H          H       0.84027   0.10767   0.58658
H          H       0.15973   0.89233   0.91342
H          H       0.93808   0.15962   0.78807
H          H       0.06192   0.84038   0.71193
H          H       0.84594   0.20852   0.78984
H          H       0.15406   0.79148   0.71016
H          H       0.68385   0.14590   0.95114
H          H       0.31615   0.85410   0.54886
H          H       0.64612   0.08657   0.99208
H          H       0.35388   0.91343   0.50792
H          H       0.51548   0.13226   0.71583
H          H       0.48452   0.86774   0.78418
H          H       0.56136   0.19074   0.65809
H          H       0.43864   0.80926   0.84191
H          H       0.49910   0.20604   0.50448
H          H       0.50090   0.79396   0.99552
H          H       0.37185   0.21072   0.52825
H          H       0.62815   0.78928   0.97175
H          H       0.43395   0.29368   0.58158
H          H       0.56605   0.70632   0.91842
H          H       0.56284   0.28702   0.55636
H          H       0.43716   0.71298   0.94364
H          H       0.64595   0.43700   0.51616
H          H       0.35405   0.56300   0.98384
H          H       0.59919   0.49101   0.99069
H          H       0.40081   0.50899   0.50932
H          H       0.58705   0.04651   0.92803
H          H       0.41295   0.95349   0.57196
H          H       0.97967   0.09793   0.76941
H          H       0.02033   0.90207   0.73059
H          H       0.60778   0.00381   0.80560
H          H       0.39222   0.99619   0.69440
H          H       0.28222   0.23218   0.89983
H          H       0.71778   0.76782   0.60018
H          H       0.21726   0.21948   0.78370
H          H       0.78274   0.78052   0.71630
H          H       0.85705   0.98462   0.66494
H          H       0.14295   0.01538   0.83506
H          H       0.88225   0.02977   0.55595
H          H       0.11775   0.97023   0.94405
H          H       0.82339   0.01926   0.77064
H          H       0.17661   0.98074   0.72936
