data_crystal

_cell_length_a    34.58300
_cell_length_b    34.60600
_cell_length_c    9.40738
_cell_angle_alpha 90.00000
_cell_angle_beta  90.00000
_cell_angle_gamma 90.00000

_space_group_name_Hall 'P 1'
_space_group_name_H-M_alt 'P 1'

loop_
_symmetry_equiv_pos_as_xyz
 'x,y,z'

loop_
_atom_site_label
_atom_site_type_symbol
_atom_site_fract_x
_atom_site_fract_y
_atom_site_fract_z
N          N       0.84472   0.40160   0.38094
N          N       0.89779   0.34669   0.44335
C          C       0.81014   0.41607   0.37313
C          C       0.91548   0.31496   0.40816
C          C       0.77549   0.39013   0.36768
C          C       0.89252   0.28177   0.35378
C          C       0.77401   0.35244   0.43034
C          C       0.73946   0.33172   0.43121
C          C       0.70614   0.34665   0.36784
C          C       0.70709   0.38345   0.30612
C          C       0.74135   0.40508   0.30722
C          C       0.90039   0.24482   0.40743
C          C       0.87582   0.21383   0.37632
C          C       0.84394   0.21878   0.28501
C          C       0.83925   0.25451   0.21625
C          C       0.86208   0.28615   0.25358
O          O       0.80624   0.33412   0.48828
O          O       0.85000   0.32252   0.20947
Cu         Cu      0.84766   0.34908   0.37885
C          C       0.67089   0.32279   0.36548
C          C       0.81293   0.18894   0.27604
C          C       0.63809   0.33376   0.44334
C          C       0.60638   0.30873   0.45404
C          C       0.60705   0.27254   0.38640
C          C       0.63965   0.26217   0.30531
C          C       0.67136   0.28700   0.29561
C          C       0.77386   0.20034   0.26648
C          C       0.74428   0.17295   0.26777
C          C       0.75281   0.13360   0.28257
C          C       0.79167   0.12185   0.29107
C          C       0.82146   0.14926   0.28697
C          C       0.57373   0.24602   0.40042
C          C       0.72066   0.10564   0.28757
C          C       0.92844   0.46503   0.00046
C          C       0.95698   0.43710   0.01633
C          C       0.94863   0.39776   0.49983
C          C       0.91059   0.38644   0.46032
C          C       0.88168   0.41560   0.43428
C          C       0.89060   0.45492   0.46271
C          C       0.86150   0.48596   0.46813
C          C       0.98137   0.37063   0.01250
C          C       0.86472   0.51826   0.37893
C          C       0.83818   0.54856   0.39010
C          C       0.80783   0.54656   0.48827
C          C       0.80525   0.51477   0.08050
C          C       0.83257   0.48515   0.07252
C          C       0.98204   0.34158   0.11621
C          C       0.01154   0.31377   0.11593
C          C       0.04112   0.31549   0.01423
C          C       0.04207   0.34673   0.41862
C          C       0.01245   0.37401   0.41797
N          N       0.57479   0.21225   0.34005
N          N       0.06872   0.28460   0.00527
N          N       0.15772   0.60109   0.08636
N          N       0.10214   0.65627   0.06152
C          C       0.18978   0.59057   0.02502
C          C       0.08447   0.68755   0.10230
C          C       0.22510   0.61539   0.03032
C          C       0.10745   0.71965   0.16476
C          C       0.22452   0.65650   0.02400
C          C       0.25888   0.67741   0.02653
C          C       0.29460   0.65881   0.03894
C          C       0.29572   0.61827   0.04038
C          C       0.26131   0.59684   0.03510
C          C       0.09943   0.75769   0.12233
C          C       0.12390   0.78804   0.16254
C          C       0.15632   0.78092   0.24857
C          C       0.16201   0.74364   0.30327
C          C       0.13822   0.71299   0.26177
O          O       0.19067   0.67789   0.01686
O          O       0.14955   0.67552   0.29657
Cu         Cu      0.15296   0.65336   0.12042
C          C       0.33006   0.68238   0.05496
C          C       0.18691   0.81067   0.26609
C          C       0.36334   0.67445   0.47452
C          C       0.39592   0.69831   0.48558
C          C       0.39570   0.73034   0.07731
C          C       0.36251   0.73797   0.15888
C          C       0.33006   0.71421   0.14791
C          C       0.22584   0.80052   0.24375
C          C       0.25503   0.82819   0.25483
C          C       0.24603   0.86667   0.28857
C          C       0.20723   0.87701   0.31126
C          C       0.17781   0.84924   0.29933
C          C       0.42999   0.75567   0.08609
C          C       0.27809   0.89527   0.31349
C          C       0.06989   0.53771   0.02862
C          C       0.04160   0.56576   0.00970
C          C       0.05053   0.60521   0.01479
C          C       0.08944   0.61660   0.04069
C          C       0.11892   0.58742   0.05645
C          C       0.10884   0.54755   0.05077
C          C       0.13726   0.51523   0.06498
C          C       0.01800   0.63259   0.49633
C          C       0.13451   0.48321   0.47330
C          C       0.16091   0.45284   0.48200
C          C       0.19152   0.45421   0.07860
C          C       0.19415   0.48560   0.17336
C          C       0.16652   0.51528   0.16903
C          C       0.01898   0.66110   0.39079
C          C       0.98907   0.68824   0.38002
C          C       0.95677   0.68592   0.46963
C          C       0.95505   0.65616   0.07156
C          C       0.98535   0.62973   0.08422
N          N       0.42917   0.78671   0.16378
N          N       0.92750   0.71539   0.46165
N          N       0.60257   0.84219   0.24035
N          N       0.66104   0.89464   0.25916
C          C       0.58881   0.81219   0.30656
C          C       0.69266   0.91068   0.21330
C          C       0.61193   0.77651   0.33584
C          C       0.72303   0.88622   0.14705
C          C       0.65314   0.77429   0.33833
C          C       0.67139   0.74047   0.38265
C          C       0.65033   0.70797   0.42528
C          C       0.60980   0.70960   0.42085
C          C       0.59096   0.74346   0.37761
C          C       0.76193   0.89323   0.18116
C          C       0.79089   0.86754   0.13722
C          C       0.78141   0.83494   0.05540
C          C       0.74321   0.83022   0.00886
C          C       0.71397   0.85529   0.05365
O          O       0.67784   0.80433   0.30129
O          O       0.67565   0.84559   0.02400
Cu         Cu      0.65475   0.84367   0.20252
C          C       0.67140   0.67233   0.46785
C          C       0.80987   0.80344   0.03213
C          C       0.65801   0.63565   0.42609
C          C       0.68081   0.60281   0.44848
C          C       0.71762   0.60628   0.00972
C          C       0.73024   0.64245   0.05834
C          C       0.70707   0.67505   0.03979
C          C       0.79875   0.76486   0.05568
C          C       0.82543   0.73490   0.04136
C          C       0.86384   0.74271   0.00335
C          C       0.87503   0.78117   0.47724
C          C       0.84823   0.81134   0.49210
C          C       0.74358   0.57270   0.01359
C          C       0.89173   0.71041   0.00012
C          C       0.54430   0.93329   0.29950
C          C       0.57395   0.95977   0.32128
C          C       0.61297   0.94903   0.30984
C          C       0.62223   0.90965   0.28175
C          C       0.59144   0.88207   0.26528
C          C       0.55224   0.89448   0.26882
C          C       0.51932   0.86839   0.23411
C          C       0.64173   0.98062   0.31856
C          C       0.48510   0.86910   0.31472
C          C       0.45562   0.84237   0.28843
C          C       0.45981   0.81435   0.18230
C          C       0.49324   0.81474   0.09704
C          C       0.52213   0.84218   0.12101
C          C       0.67140   0.98034   0.42005
C          C       0.69911   0.00988   0.42199
C          C       0.69635   0.04103   0.32730
C          C       0.66560   0.04207   0.22954
C          C       0.63860   0.01217   0.22550
N          N       0.78044   0.57752   0.49395
N          N       0.72608   0.07005   0.32706
N          N       0.40133   0.15770   0.23541
N          N       0.34343   0.10529   0.19996
C          C       0.42055   0.18858   0.20063
C          C       0.31226   0.09411   0.26568
C          C       0.39925   0.22375   0.15740
C          C       0.27816   0.11991   0.28771
C          C       0.36718   0.22240   0.06387
C          C       0.34605   0.25614   0.03567
C          C       0.35562   0.29123   0.10326
C          C       0.38876   0.29249   0.19004
C          C       0.41071   0.25929   0.21443
C          C       0.24183   0.10197   0.30320
C          C       0.20859   0.12357   0.33448
C          C       0.21111   0.16362   0.35485
C          C       0.24712   0.18161   0.34103
C          C       0.28024   0.16066   0.30729
O          O       0.35302   0.18697   0.01589
O          O       0.31411   0.18196   0.29662
Cu         Cu      0.34982   0.15854   0.18116
C          C       0.32954   0.32551   0.09460
C          C       0.17653   0.18777   0.38286
C          C       0.34483   0.36322   0.09582
C          C       0.32039   0.39539   0.10222
C          C       0.28011   0.39069   0.10532
C          C       0.26460   0.35316   0.10021
C          C       0.28905   0.32092   0.09583
C          C       0.17893   0.21893   0.47887
C          C       0.14961   0.24662   0.48442
C          C       0.11747   0.24341   0.39458
C          C       0.11347   0.21097   0.30664
C          C       0.14283   0.18316   0.30089
C          C       0.25487   0.42509   0.11411
C          C       0.09070   0.27683   0.37609
C          C       0.45884   0.06460   0.25794
C          C       0.42959   0.03793   0.23343
C          C       0.39077   0.04933   0.21923
C          C       0.38202   0.08964   0.22108
C          C       0.41256   0.11733   0.24325
C          C       0.45108   0.10421   0.26678
C          C       0.48419   0.13012   0.29815
C          C       0.36134   0.01778   0.21183
C          C       0.51809   0.12763   0.21648
C          C       0.54813   0.15396   0.23663
C          C       0.54469   0.18369   0.33643
C          C       0.51185   0.18483   0.42509
C          C       0.48228   0.15750   0.40794
C          C       0.33126   0.01739   0.11116
C          C       0.30367   0.98751   0.11135
C          C       0.30638   0.95700   0.20927
C          C       0.33722   0.95683   0.30642
C          C       0.36412   0.98678   0.30789
N          N       0.21859   0.42275   0.07899
N          N       0.27794   0.92655   0.20884
H          H       0.80535   0.44672   0.36902
H          H       0.94624   0.31149   0.41574
H          H       0.73884   0.30327   0.47944
H          H       0.68142   0.39529   0.25643
H          H       0.74127   0.43359   0.25952
H          H       0.92379   0.24057   0.48242
H          H       0.88050   0.18673   0.43101
H          H       0.81551   0.25902   0.14300
H          H       0.63761   0.36109   0.49949
H          H       0.58158   0.31732   0.01690
H          H       0.64082   0.23468   0.25044
H          H       0.69656   0.27818   0.23509
H          H       0.76583   0.23057   0.26250
H          H       0.71453   0.18267   0.26052
H          H       0.79905   0.09153   0.30062
H          H       0.85112   0.13937   0.29305
H          H       0.54820   0.25569   0.45660
H          H       0.69186   0.11583   0.26168
H          H       0.93591   0.49496   0.02067
H          H       0.98597   0.44633   0.04422
H          H       0.88752   0.51981   0.30006
H          H       0.84054   0.57313   0.31935
H          H       0.78271   0.51333   0.16022
H          H       0.83080   0.46104   0.14499
H          H       0.95863   0.33944   0.19136
H          H       0.01065   0.29025   0.19186
H          H       0.06482   0.34970   0.34075
H          H       0.01292   0.39693   0.33946
H          H       0.19169   0.56316   0.47056
H          H       0.05367   0.69109   0.09631
H          H       0.25747   0.70870   0.02217
H          H       0.32309   0.60323   0.04918
H          H       0.26293   0.56557   0.03818
H          H       0.07580   0.76351   0.04974
H          H       0.11895   0.81656   0.11887
H          H       0.18706   0.73783   0.36879
H          H       0.36374   0.65050   0.40036
H          H       0.42109   0.69210   0.42082
H          H       0.36155   0.76231   0.23122
H          H       0.30487   0.72071   0.21242
H          H       0.23373   0.77116   0.21601
H          H       0.28477   0.81936   0.23842
H          H       0.19981   0.90639   0.34027
H          H       0.14807   0.85769   0.31812
H          H       0.45566   0.74756   0.02763
H          H       0.30658   0.88037   0.31061
H          H       0.06091   0.50771   0.02675
H          H       0.01210   0.55639   0.49114
H          H       0.11233   0.48197   0.39216
H          H       0.15830   0.42869   0.40946
H          H       0.21678   0.48674   0.25278
H          H       0.16832   0.53853   0.24556
H          H       0.04380   0.66316   0.32197
H          H       0.99109   0.71108   0.30174
H          H       0.93127   0.65413   0.14591
H          H       0.98390   0.60775   0.16609
H          H       0.55980   0.81296   0.34869
H          H       0.69774   0.94122   0.21858
H          H       0.70273   0.73964   0.38065
H          H       0.59261   0.68494   0.45286
H          H       0.55959   0.74389   0.37833
H          H       0.76960   0.91720   0.24974
H          H       0.82021   0.87190   0.17430
H          H       0.73581   0.80504   0.44672
H          H       0.63086   0.63249   0.36980
H          H       0.67064   0.57504   0.41058
H          H       0.75835   0.64561   0.10817
H          H       0.71767   0.70262   0.07805
H          H       0.76957   0.75790   0.08909
H          H       0.81617   0.70554   0.06262
H          H       0.90456   0.78801   0.44799
H          H       0.85742   0.84079   0.47274
H          H       0.73132   0.54387   0.01753
H          H       0.88171   0.68214   0.03327
H          H       0.51477   0.94372   0.30199
H          H       0.56624   0.98957   0.34299
H          H       0.48167   0.88932   0.40164
H          H       0.42986   0.84275   0.35400
H          H       0.49719   0.79467   0.01043
H          H       0.54733   0.84251   0.05350
H          H       0.67371   0.95656   0.49351
H          H       0.72256   0.00871   0.49816
H          H       0.66313   0.06513   0.15243
H          H       0.61573   0.01315   0.14685
H          H       0.45159   0.18973   0.19864
H          H       0.31066   0.06562   0.31166
H          H       0.32079   0.25432   0.46793
H          H       0.39674   0.31873   0.24534
H          H       0.43538   0.26088   0.28527
H          H       0.23917   0.07093   0.29117
H          H       0.18104   0.10893   0.34464
H          H       0.24961   0.21270   0.35209
H          H       0.37578   0.36788   0.09273
H          H       0.33301   0.42405   0.10429
H          H       0.23358   0.34866   0.10301
H          H       0.27616   0.29241   0.09813
H          H       0.20437   0.22287   0.04470
H          H       0.15298   0.27162   0.05285
H          H       0.08879   0.20843   0.23617
H          H       0.14043   0.15970   0.22499
H          H       0.26752   0.45273   0.14178
H          H       0.10813   0.30243   0.34508
H          H       0.48805   0.05393   0.27251
H          H       0.43750   0.00765   0.22814
H          H       0.52068   0.10629   0.13281
H          H       0.57354   0.15231   0.16952
H          H       0.50874   0.20655   0.00689
H          H       0.45679   0.15892   0.47389
H          H       0.32894   0.04038   0.03388
H          H       0.28033   0.98803   0.03456
H          H       0.34046   0.93397   0.38375
H          H       0.38690   0.98603   0.38700
N          N       0.84472   0.40160   0.88094
N          N       0.89779   0.34669   0.94335
C          C       0.81014   0.41607   0.87313
C          C       0.91548   0.31496   0.90816
C          C       0.77549   0.39013   0.86769
C          C       0.89252   0.28177   0.85377
C          C       0.77401   0.35244   0.93034
C          C       0.73946   0.33172   0.93121
C          C       0.70614   0.34665   0.86784
C          C       0.70709   0.38345   0.80612
C          C       0.74135   0.40508   0.80721
C          C       0.90039   0.24482   0.90743
C          C       0.87582   0.21383   0.87631
C          C       0.84394   0.21878   0.78501
C          C       0.83925   0.25451   0.71625
C          C       0.86208   0.28615   0.75358
O          O       0.80624   0.33412   0.98828
O          O       0.85000   0.32252   0.70947
Cu         Cu      0.84766   0.34908   0.87885
C          C       0.67089   0.32279   0.86548
C          C       0.81293   0.18894   0.77604
C          C       0.63809   0.33376   0.94333
C          C       0.60638   0.30873   0.95404
C          C       0.60705   0.27254   0.88640
C          C       0.63965   0.26217   0.80531
C          C       0.67136   0.28700   0.79561
C          C       0.77386   0.20034   0.76648
C          C       0.74428   0.17295   0.76777
C          C       0.75281   0.13360   0.78256
C          C       0.79167   0.12185   0.79107
C          C       0.82146   0.14926   0.78697
C          C       0.57373   0.24602   0.90042
C          C       0.72066   0.10564   0.78757
C          C       0.92844   0.46503   0.50046
C          C       0.95698   0.43710   0.51633
C          C       0.94863   0.39776   0.99983
C          C       0.91059   0.38644   0.96032
C          C       0.88168   0.41560   0.93428
C          C       0.89060   0.45492   0.96272
C          C       0.86150   0.48596   0.96813
C          C       0.98137   0.37063   0.51250
C          C       0.86472   0.51826   0.87893
C          C       0.83818   0.54856   0.89010
C          C       0.80783   0.54656   0.98828
C          C       0.80525   0.51477   0.58050
C          C       0.83257   0.48515   0.57252
C          C       0.98204   0.34158   0.61621
C          C       0.01154   0.31377   0.61593
C          C       0.04112   0.31549   0.51423
C          C       0.04207   0.34673   0.91861
C          C       0.01245   0.37401   0.91797
N          N       0.57479   0.21225   0.84005
N          N       0.06872   0.28460   0.50527
N          N       0.15772   0.60109   0.58636
N          N       0.10214   0.65627   0.56151
C          C       0.18978   0.59057   0.52502
C          C       0.08447   0.68755   0.60230
C          C       0.22510   0.61539   0.53031
C          C       0.10745   0.71965   0.66475
C          C       0.22452   0.65650   0.52400
C          C       0.25888   0.67741   0.52653
C          C       0.29460   0.65881   0.53894
C          C       0.29572   0.61827   0.54038
C          C       0.26131   0.59684   0.53510
C          C       0.09943   0.75769   0.62233
C          C       0.12390   0.78804   0.66253
C          C       0.15632   0.78092   0.74857
C          C       0.16201   0.74364   0.80327
C          C       0.13822   0.71299   0.76177
O          O       0.19067   0.67789   0.51686
O          O       0.14955   0.67552   0.79657
Cu         Cu      0.15296   0.65336   0.62042
C          C       0.33006   0.68238   0.55497
C          C       0.18691   0.81067   0.76608
C          C       0.36334   0.67445   0.97453
C          C       0.39592   0.69831   0.98558
C          C       0.39570   0.73034   0.57731
C          C       0.36251   0.73797   0.65888
C          C       0.33006   0.71421   0.64791
C          C       0.22584   0.80052   0.74375
C          C       0.25503   0.82819   0.75483
C          C       0.24603   0.86667   0.78857
C          C       0.20723   0.87701   0.81125
C          C       0.17781   0.84924   0.79933
C          C       0.42999   0.75567   0.58609
C          C       0.27809   0.89527   0.81349
C          C       0.06989   0.53771   0.52861
C          C       0.04160   0.56576   0.50970
C          C       0.05053   0.60521   0.51479
C          C       0.08944   0.61660   0.54069
C          C       0.11892   0.58742   0.55644
C          C       0.10884   0.54755   0.55077
C          C       0.13726   0.51523   0.56498
C          C       0.01800   0.63259   0.99633
C          C       0.13451   0.48321   0.97330
C          C       0.16091   0.45284   0.98201
C          C       0.19152   0.45421   0.57861
C          C       0.19415   0.48560   0.67337
C          C       0.16652   0.51528   0.66904
C          C       0.01898   0.66110   0.89079
C          C       0.98907   0.68824   0.88002
C          C       0.95677   0.68592   0.96963
C          C       0.95505   0.65616   0.57156
C          C       0.98535   0.62973   0.58422
N          N       0.42917   0.78671   0.66378
N          N       0.92750   0.71539   0.96164
N          N       0.60257   0.84219   0.74035
N          N       0.66104   0.89464   0.75916
C          C       0.58881   0.81219   0.80656
C          C       0.69266   0.91068   0.71330
C          C       0.61193   0.77651   0.83584
C          C       0.72303   0.88622   0.64705
C          C       0.65314   0.77429   0.83833
C          C       0.67139   0.74047   0.88265
C          C       0.65033   0.70797   0.92528
C          C       0.60980   0.70960   0.92085
C          C       0.59096   0.74346   0.87761
C          C       0.76193   0.89323   0.68116
C          C       0.79089   0.86754   0.63722
C          C       0.78141   0.83494   0.55540
C          C       0.74321   0.83022   0.50886
C          C       0.71397   0.85529   0.55366
O          O       0.67784   0.80433   0.80129
O          O       0.67565   0.84559   0.52400
Cu         Cu      0.65475   0.84367   0.70252
C          C       0.67140   0.67233   0.96785
C          C       0.80987   0.80344   0.53214
C          C       0.65801   0.63565   0.92609
C          C       0.68081   0.60281   0.94848
C          C       0.71762   0.60628   0.50972
C          C       0.73024   0.64245   0.55834
C          C       0.70707   0.67505   0.53979
C          C       0.79875   0.76486   0.55568
C          C       0.82543   0.73490   0.54136
C          C       0.86384   0.74271   0.50335
C          C       0.87503   0.78117   0.97723
C          C       0.84823   0.81134   0.99211
C          C       0.74358   0.57270   0.51359
C          C       0.89173   0.71041   0.50011
C          C       0.54430   0.93329   0.79950
C          C       0.57395   0.95977   0.82128
C          C       0.61297   0.94903   0.80984
C          C       0.62223   0.90965   0.78175
C          C       0.59144   0.88207   0.76528
C          C       0.55224   0.89448   0.76882
C          C       0.51932   0.86839   0.73411
C          C       0.64173   0.98062   0.81856
C          C       0.48510   0.86910   0.81472
C          C       0.45562   0.84237   0.78843
C          C       0.45981   0.81435   0.68231
C          C       0.49324   0.81474   0.59704
C          C       0.52213   0.84218   0.62101
C          C       0.67140   0.98034   0.92005
C          C       0.69911   0.00988   0.92199
C          C       0.69635   0.04103   0.82730
C          C       0.66560   0.04207   0.72954
C          C       0.63860   0.01217   0.72550
N          N       0.78044   0.57752   0.99396
N          N       0.72608   0.07005   0.82706
N          N       0.40133   0.15770   0.73541
N          N       0.34343   0.10529   0.69996
C          C       0.42055   0.18858   0.70063
C          C       0.31226   0.09411   0.76568
C          C       0.39925   0.22375   0.65740
C          C       0.27816   0.11991   0.78772
C          C       0.36718   0.22240   0.56386
C          C       0.34605   0.25614   0.53568
C          C       0.35562   0.29123   0.60327
C          C       0.38876   0.29249   0.69004
C          C       0.41071   0.25929   0.71444
C          C       0.24183   0.10197   0.80320
C          C       0.20859   0.12357   0.83448
C          C       0.21111   0.16362   0.85485
C          C       0.24712   0.18161   0.84103
C          C       0.28024   0.16066   0.80729
O          O       0.35302   0.18697   0.51589
O          O       0.31411   0.18196   0.79661
Cu         Cu      0.34982   0.15854   0.68117
C          C       0.32954   0.32551   0.59460
C          C       0.17653   0.18777   0.88286
C          C       0.34483   0.36322   0.59583
C          C       0.32039   0.39539   0.60222
C          C       0.28011   0.39069   0.60532
C          C       0.26460   0.35316   0.60021
C          C       0.28905   0.32092   0.59583
C          C       0.17893   0.21893   0.97887
C          C       0.14961   0.24662   0.98442
C          C       0.11747   0.24341   0.89458
C          C       0.11347   0.21097   0.80664
C          C       0.14283   0.18316   0.80088
C          C       0.25487   0.42509   0.61411
C          C       0.09070   0.27683   0.87609
C          C       0.45884   0.06460   0.75794
C          C       0.42959   0.03793   0.73343
C          C       0.39077   0.04933   0.71923
C          C       0.38202   0.08964   0.72108
C          C       0.41256   0.11733   0.74325
C          C       0.45108   0.10421   0.76679
C          C       0.48419   0.13012   0.79815
C          C       0.36134   0.01778   0.71183
C          C       0.51809   0.12763   0.71648
C          C       0.54813   0.15396   0.73663
C          C       0.54469   0.18369   0.83644
C          C       0.51185   0.18483   0.92509
C          C       0.48228   0.15750   0.90794
C          C       0.33126   0.01739   0.61116
C          C       0.30367   0.98751   0.61135
C          C       0.30638   0.95700   0.70927
C          C       0.33722   0.95683   0.80642
C          C       0.36412   0.98678   0.80789
N          N       0.21859   0.42275   0.57900
N          N       0.27794   0.92655   0.70884
H          H       0.80535   0.44672   0.86902
H          H       0.94624   0.31149   0.91574
H          H       0.73884   0.30327   0.97945
H          H       0.68142   0.39529   0.75643
H          H       0.74127   0.43359   0.75952
H          H       0.92379   0.24057   0.98242
H          H       0.88050   0.18673   0.93100
H          H       0.81551   0.25902   0.64299
H          H       0.63761   0.36109   0.99949
H          H       0.58158   0.31732   0.51690
H          H       0.64082   0.23468   0.75044
H          H       0.69656   0.27818   0.73509
H          H       0.76583   0.23057   0.76250
H          H       0.71453   0.18267   0.76052
H          H       0.79905   0.09153   0.80063
H          H       0.85112   0.13937   0.79305
H          H       0.54820   0.25569   0.95660
H          H       0.69186   0.11583   0.76168
H          H       0.93591   0.49496   0.52067
H          H       0.98597   0.44633   0.54422
H          H       0.88752   0.51981   0.80006
H          H       0.84054   0.57313   0.81935
H          H       0.78271   0.51333   0.66022
H          H       0.83080   0.46104   0.64498
H          H       0.95863   0.33944   0.69136
H          H       0.01065   0.29025   0.69186
H          H       0.06482   0.34970   0.84074
H          H       0.01292   0.39693   0.83946
H          H       0.19169   0.56316   0.97056
H          H       0.05367   0.69109   0.59630
H          H       0.25747   0.70870   0.52216
H          H       0.32309   0.60323   0.54918
H          H       0.26293   0.56557   0.53818
H          H       0.07580   0.76351   0.54974
H          H       0.11895   0.81656   0.61887
H          H       0.18706   0.73783   0.86879
H          H       0.36374   0.65050   0.90036
H          H       0.42109   0.69210   0.92082
H          H       0.36155   0.76231   0.73122
H          H       0.30487   0.72071   0.71242
H          H       0.23373   0.77116   0.71601
H          H       0.28477   0.81936   0.73842
H          H       0.19981   0.90639   0.84027
H          H       0.14807   0.85769   0.81812
H          H       0.45566   0.74756   0.52763
H          H       0.30658   0.88037   0.81061
H          H       0.06091   0.50771   0.52675
H          H       0.01210   0.55639   0.99114
H          H       0.11233   0.48197   0.89216
H          H       0.15830   0.42869   0.90946
H          H       0.21678   0.48674   0.75278
H          H       0.16832   0.53853   0.74556
H          H       0.04380   0.66316   0.82197
H          H       0.99109   0.71108   0.80174
H          H       0.93127   0.65413   0.64592
H          H       0.98390   0.60775   0.66609
H          H       0.55980   0.81296   0.84869
H          H       0.69774   0.94122   0.71858
H          H       0.70273   0.73964   0.88065
H          H       0.59261   0.68494   0.95286
H          H       0.55959   0.74389   0.87833
H          H       0.76960   0.91720   0.74973
H          H       0.82021   0.87190   0.67430
H          H       0.73581   0.80504   0.94672
H          H       0.63086   0.63249   0.86980
H          H       0.67064   0.57504   0.91058
H          H       0.75835   0.64561   0.60817
H          H       0.71767   0.70262   0.57805
H          H       0.76957   0.75790   0.58910
H          H       0.81617   0.70554   0.56262
H          H       0.90456   0.78801   0.94799
H          H       0.85742   0.84079   0.97274
H          H       0.73132   0.54387   0.51753
H          H       0.88171   0.68214   0.53327
H          H       0.51477   0.94372   0.80198
H          H       0.56624   0.98957   0.84299
H          H       0.48167   0.88932   0.90163
H          H       0.42986   0.84275   0.85400
H          H       0.49719   0.79467   0.51043
H          H       0.54733   0.84251   0.55349
H          H       0.67371   0.95656   0.99351
H          H       0.72256   0.00871   0.99816
H          H       0.66313   0.06513   0.65243
H          H       0.61573   0.01315   0.64685
H          H       0.45159   0.18973   0.69864
H          H       0.31066   0.06562   0.81166
H          H       0.32079   0.25432   0.96793
H          H       0.39674   0.31873   0.74534
H          H       0.43538   0.26088   0.78527
H          H       0.23917   0.07093   0.79117
H          H       0.18104   0.10893   0.84464
H          H       0.24961   0.21270   0.85209
H          H       0.37578   0.36788   0.59273
H          H       0.33301   0.42405   0.60430
H          H       0.23358   0.34866   0.60301
H          H       0.27616   0.29241   0.59813
H          H       0.20437   0.22287   0.54470
H          H       0.15298   0.27162   0.55285
H          H       0.08879   0.20843   0.73617
H          H       0.14043   0.15970   0.72499
H          H       0.26752   0.45273   0.64177
H          H       0.10813   0.30243   0.84508
H          H       0.48805   0.05393   0.77251
H          H       0.43750   0.00765   0.72813
H          H       0.52068   0.10629   0.63281
H          H       0.57354   0.15231   0.66952
H          H       0.50874   0.20655   0.50689
H          H       0.45679   0.15892   0.97389
H          H       0.32894   0.04038   0.53388
H          H       0.28033   0.98803   0.53456
H          H       0.34046   0.93397   0.88375
H          H       0.38690   0.98603   0.88700
