data_crystal

_cell_length_a    34.55730
_cell_length_b    34.60590
_cell_length_c    9.41070
_cell_angle_alpha 90.00000
_cell_angle_beta  90.00000
_cell_angle_gamma 90.00000

_space_group_name_Hall 'P 1'
_space_group_name_H-M_alt 'P 1'

loop_
_symmetry_equiv_pos_as_xyz
 'x,y,z'

loop_
_atom_site_label
_atom_site_type_symbol
_atom_site_fract_x
_atom_site_fract_y
_atom_site_fract_z
N          N       0.84688   0.40741   0.32259
N          N       0.89685   0.35300   0.31393
C          C       0.81329   0.41841   0.37039
C          C       0.90425   0.31808   0.35785
C          C       0.77743   0.39805   0.33296
C          C       0.87979   0.28504   0.31679
C          C       0.77663   0.37195   0.22043
C          C       0.74424   0.34852   0.19812
C          C       0.71172   0.35168   0.28730
C          C       0.71135   0.38055   0.39229
C          C       0.74388   0.40374   0.41451
C          C       0.88128   0.25056   0.39474
C          C       0.85511   0.22070   0.36624
C          C       0.82785   0.22394   0.25509
C          C       0.82895   0.25761   0.17077
C          C       0.85445   0.28772   0.20229
O          O       0.80726   0.37084   0.12613
O          O       0.85576   0.31972   0.11509
Ni         Ni      0.85137   0.36251   0.21774
C          C       0.67918   0.32385   0.27692
C          C       0.79767   0.19334   0.23195
C          C       0.64076   0.33648   0.29136
C          C       0.61036   0.30985   0.29411
C          C       0.61772   0.27012   0.28156
C          C       0.65603   0.25742   0.26465
C          C       0.68650   0.28408   0.26283
C          C       0.76194   0.20216   0.16662
C          C       0.73254   0.17444   0.15687
C          C       0.73776   0.13748   0.21441
C          C       0.77367   0.12797   0.27452
C          C       0.80340   0.15529   0.28118
C          C       0.58508   0.24265   0.28848
C          C       0.70559   0.10933   0.21365
C          C       0.93098   0.45946   0.49952
C          C       0.95813   0.42971   0.49495
C          C       0.94911   0.39377   0.43444
C          C       0.91098   0.38774   0.38105
C          C       0.88358   0.41771   0.38547
C          C       0.89379   0.45453   0.44295
C          C       0.86932   0.48960   0.43259
C          C       0.98171   0.36648   0.41399
C          C       0.87763   0.51782   0.32988
C          C       0.85419   0.55074   0.31728
C          C       0.82178   0.55529   0.40465
C          C       0.81592   0.52910   0.01668
C          C       0.84053   0.49732   0.03353
C          C       0.98844   0.33602   0.00918
C          C       0.01954   0.31070   0.48783
C          C       0.04612   0.31716   0.37841
C          C       0.04132   0.34974   0.29068
C          C       0.00931   0.37409   0.30855
N          N       0.58939   0.20637   0.25581
N          N       0.07630   0.28919   0.35615
N          N       0.15185   0.59541   0.15247
N          N       0.10010   0.64737   0.16838
C          C       0.18402   0.58535   0.09080
C          C       0.09124   0.68139   0.11883
C          C       0.22047   0.60575   0.12166
C          C       0.11508   0.71567   0.15144
C          C       0.22285   0.63190   0.23454
C          C       0.25645   0.65341   0.25638
C          C       0.28863   0.64912   0.16647
C          C       0.28716   0.62071   0.05959
C          C       0.25348   0.59893   0.03830
C          C       0.11157   0.74945   0.06957
C          C       0.13683   0.78060   0.09145
C          C       0.16534   0.77896   0.19832
C          C       0.16610   0.74633   0.28750
C          C       0.14158   0.71505   0.26319
O          O       0.19349   0.63416   0.33423
O          O       0.14308   0.68371   0.35354
Ni         Ni      0.14760   0.64054   0.25343
C          C       0.32292   0.67488   0.18244
C          C       0.19545   0.80976   0.21230
C          C       0.36055   0.66138   0.15449
C          C       0.39240   0.68620   0.16576
C          C       0.38735   0.72488   0.20670
C          C       0.34991   0.73837   0.23606
C          C       0.31807   0.71372   0.22320
C          C       0.23293   0.80025   0.25949
C          C       0.26181   0.82834   0.26872
C          C       0.25424   0.86662   0.22919
C          C       0.21696   0.87653   0.18220
C          C       0.18778   0.84843   0.17461
C          C       0.42123   0.75077   0.21652
C          C       0.28570   0.89540   0.23888
C          C       0.06581   0.53441   0.04700
C          C       0.03777   0.56334   0.04374
C          C       0.04663   0.60156   0.08161
C          C       0.08571   0.61081   0.11602
C          C       0.11411   0.58182   0.11324
C          C       0.10433   0.54264   0.08465
C          C       0.13218   0.50979   0.10027
C          C       0.01335   0.62809   0.09903
C          C       0.13053   0.47793   0.00735
C          C       0.15738   0.44783   0.01821
C          C       0.18705   0.44936   0.11855
C          C       0.18789   0.48003   0.21612
C          C       0.15999   0.50931   0.20941
C          C       0.00565   0.65727   0.49989
C          C       0.97378   0.68170   0.01753
C          C       0.94735   0.67547   0.12742
C          C       0.95258   0.64342   0.21742
C          C       0.98551   0.62012   0.20357
N          N       0.41806   0.78535   0.26970
N          N       0.91648   0.70290   0.14422
N          N       0.59535   0.84485   0.28324
N          N       0.64842   0.89545   0.26428
C          C       0.58361   0.81363   0.34720
C          C       0.68238   0.90420   0.31505
C          C       0.60423   0.77680   0.32904
C          C       0.71619   0.87894   0.29174
C          C       0.63228   0.77253   0.22323
C          C       0.65531   0.73935   0.21816
C          C       0.65031   0.70961   0.31836
C          C       0.61952   0.71254   0.41579
C          C       0.59644   0.74570   0.42021
C          C       0.74923   0.88250   0.37804
C          C       0.77972   0.85607   0.36476
C          C       0.77761   0.82617   0.26455
C          C       0.74604   0.82451   0.17181
C          C       0.71577   0.85085   0.18517
O          O       0.63537   0.79984   0.11619
O          O       0.68535   0.84931   0.09092
Ni         Ni      0.64145   0.84691   0.18730
C          C       0.67794   0.67664   0.32645
C          C       0.80700   0.79546   0.26099
C          C       0.66494   0.63961   0.36505
C          C       0.69120   0.60952   0.38694
C          C       0.73105   0.61554   0.36927
C          C       0.74420   0.65208   0.32576
C          C       0.71789   0.68242   0.30500
C          C       0.80302   0.76296   0.34876
C          C       0.83009   0.73294   0.34237
C          C       0.86117   0.73485   0.24662
C          C       0.86495   0.76748   0.15852
C          C       0.83812   0.79765   0.16625
C          C       0.75795   0.58339   0.39958
C          C       0.88971   0.70313   0.24138
C          C       0.53511   0.93251   0.37367
C          C       0.56456   0.96006   0.37778
C          C       0.60293   0.95048   0.34311
C          C       0.61174   0.91106   0.31168
C          C       0.58219   0.88324   0.31488
C          C       0.54297   0.89385   0.33845
C          C       0.50990   0.86664   0.31642
C          C       0.63024   0.98333   0.32883
C          C       0.47695   0.86799   0.40425
C          C       0.44668   0.84152   0.38561
C          C       0.44906   0.81278   0.28173
C          C       0.48103   0.81234   0.18978
C          C       0.51054   0.83967   0.20485
C          C       0.65903   0.99017   0.43045
C          C       0.68444   0.02136   0.41541
C          C       0.67924   0.04838   0.30693
C          C       0.64757   0.04416   0.21438
C          C       0.62338   0.01176   0.22525
N          N       0.79498   0.58609   0.37603
N          N       0.70740   0.07870   0.29357
N          N       0.40857   0.15490   0.13851
N          N       0.35294   0.10726   0.16746
C          C       0.42393   0.18820   0.17014
C          C       0.32149   0.09854   0.23663
C          C       0.40155   0.22412   0.15784
C          C       0.28616   0.12197   0.22209
C          C       0.37159   0.22697   0.05969
C          C       0.34976   0.26069   0.04878
C          C       0.35610   0.29179   0.14246
C          C       0.38710   0.28914   0.23943
C          C       0.41008   0.25586   0.24518
C          C       0.25483   0.11620   0.31468
C          C       0.22337   0.14171   0.31353
C          C       0.22226   0.17291   0.21749
C          C       0.25177   0.17558   0.11477
C          C       0.28339   0.15044   0.11743
O          O       0.36397   0.19637   0.47024
O          O       0.31001   0.15171   0.00752
Ni         Ni      0.35837   0.15305   0.07061
C          C       0.32930   0.32564   0.14416
C          C       0.19196   0.20358   0.22917
C          C       0.34228   0.36260   0.18493
C          C       0.31646   0.39368   0.19350
C          C       0.27728   0.38869   0.15930
C          C       0.26431   0.35211   0.11618
C          C       0.28992   0.32093   0.10961
C          C       0.20094   0.24226   0.19616
C          C       0.17348   0.27158   0.21330
C          C       0.13656   0.26313   0.26643
C          C       0.12728   0.22463   0.29942
C          C       0.15456   0.19513   0.27996
C          C       0.25043   0.42181   0.16808
C          C       0.10822   0.29473   0.28564
C          C       0.46562   0.06528   0.24919
C          C       0.43555   0.03861   0.24368
C          C       0.39727   0.05027   0.21710
C          C       0.39028   0.09025   0.19220
C          C       0.42094   0.11694   0.18605
C          C       0.45926   0.10462   0.22201
C          C       0.49355   0.12998   0.23586
C          C       0.36670   0.01974   0.21157
C          C       0.52549   0.12498   0.14547
C          C       0.55786   0.14914   0.15770
C          C       0.55836   0.17881   0.25839
C          C       0.52815   0.18123   0.35792
C          C       0.49687   0.15562   0.35062
C          C       0.33736   0.02016   0.10809
C          C       0.30902   0.99116   0.10518
C          C       0.31059   0.96016   0.20025
C          C       0.34010   0.95935   0.30286
C          C       0.36767   0.98884   0.30865
N          N       0.21538   0.41906   0.11882
N          N       0.28147   0.93054   0.19189
H          H       0.81111   0.43811   0.45678
H          H       0.92424   0.31308   0.44228
H          H       0.74478   0.32786   0.11186
H          H       0.68679   0.38359   0.46305
H          H       0.74367   0.42450   0.00077
H          H       0.90118   0.24763   0.48313
H          H       0.85519   0.19609   0.43708
H          H       0.81033   0.26117   0.07961
H          H       0.63432   0.36697   0.30157
H          H       0.58102   0.32030   0.30677
H          H       0.66230   0.22685   0.25627
H          H       0.71591   0.27363   0.25584
H          H       0.75595   0.23070   0.12604
H          H       0.70526   0.18220   0.10776
H          H       0.77860   0.09931   0.31711
H          H       0.83075   0.14630   0.32591
H          H       0.55670   0.25387   0.31503
H          H       0.68026   0.11557   0.15016
H          H       0.93956   0.48727   0.04232
H          H       0.98716   0.43536   0.03326
H          H       0.90149   0.51370   0.25680
H          H       0.85973   0.57159   0.23399
H          H       0.79279   0.53366   0.09232
H          H       0.83617   0.47782   0.12235
H          H       0.96935   0.33163   0.09920
H          H       0.02365   0.28633   0.05844
H          H       0.06110   0.35562   0.20447
H          H       0.00572   0.39869   0.23880
H          H       0.18410   0.56309   0.00990
H          H       0.06988   0.68482   0.03826
H          H       0.25713   0.67318   0.34537
H          H       0.31129   0.61660   0.48769
H          H       0.25253   0.57806   0.45246
H          H       0.09070   0.75087   0.48376
H          H       0.13530   0.80496   0.01941
H          H       0.18592   0.74442   0.37604
H          H       0.36544   0.63155   0.12495
H          H       0.42105   0.67517   0.14286
H          H       0.34536   0.76815   0.26712
H          H       0.28953   0.72530   0.24243
H          H       0.24033   0.77087   0.28692
H          H       0.29032   0.82002   0.30555
H          H       0.21053   0.90603   0.15188
H          H       0.15922   0.85712   0.14016
H          H       0.44908   0.73986   0.18225
H          H       0.31310   0.88598   0.28261
H          H       0.05667   0.50501   0.02614
H          H       0.00819   0.55545   0.01818
H          H       0.10942   0.47685   0.42244
H          H       0.15635   0.42397   0.44385
H          H       0.20922   0.48079   0.30010
H          H       0.16027   0.53176   0.28947
H          H       0.02422   0.66106   0.40815
H          H       0.96906   0.70530   0.44399
H          H       0.93221   0.63665   0.30064
H          H       0.98963   0.59607   0.27584
H          H       0.55998   0.81479   0.42230
H          H       0.68601   0.92663   0.39086
H          H       0.67710   0.73717   0.13603
H          H       0.61475   0.69029   0.49486
H          H       0.57418   0.74815   0.00087
H          H       0.75061   0.90459   0.45953
H          H       0.80435   0.85820   0.43531
H          H       0.74416   0.80224   0.09157
H          H       0.63440   0.63396   0.37959
H          H       0.68037   0.58149   0.41930
H          H       0.77484   0.65722   0.31072
H          H       0.72894   0.71068   0.27678
H          H       0.77895   0.76089   0.42201
H          H       0.82681   0.70825   0.41224
H          H       0.88867   0.76951   0.08365
H          H       0.84149   0.82252   0.09785
H          H       0.74572   0.55655   0.43850
H          H       0.88807   0.68081   0.32153
H          H       0.50567   0.94209   0.39172
H          H       0.55703   0.98979   0.40180
H          H       0.47508   0.88860   0.49057
H          H       0.42187   0.84229   0.45578
H          H       0.48261   0.79186   0.10325
H          H       0.53408   0.83975   0.12932
H          H       0.66186   0.97135   0.02190
H          H       0.70781   0.02527   0.49071
H          H       0.64219   0.06473   0.13045
H          H       0.59964   0.00839   0.15096
H          H       0.45179   0.19099   0.21563
H          H       0.32146   0.07523   0.31315
H          H       0.32747   0.26183   0.46832
H          H       0.39264   0.31199   0.31537
H          H       0.43325   0.25408   0.32260
H          H       0.25597   0.09355   0.39418
H          H       0.20128   0.13833   0.39412
H          H       0.25075   0.19727   0.03213
H          H       0.37243   0.36765   0.20943
H          H       0.32714   0.42174   0.22610
H          H       0.23420   0.34765   0.08884
H          H       0.27858   0.29300   0.07989
H          H       0.22958   0.25011   0.16048
H          H       0.18131   0.30106   0.18743
H          H       0.09882   0.21747   0.33973
H          H       0.14625   0.16573   0.30434
H          H       0.26113   0.44891   0.21010
H          H       0.11526   0.32291   0.24290
H          H       0.49449   0.05504   0.27448
H          H       0.44251   0.00838   0.25966
H          H       0.52476   0.10321   0.06268
H          H       0.58163   0.14639   0.08348
H          H       0.52912   0.20248   0.44218
H          H       0.47387   0.15748   0.42873
H          H       0.33659   0.04273   0.02869
H          H       0.28642   0.99195   0.02559
H          H       0.34120   0.93680   0.38222
H          H       0.38931   0.98790   0.39187
N          N       0.84688   0.40741   0.82259
N          N       0.89685   0.35300   0.81393
C          C       0.81329   0.41841   0.87039
C          C       0.90425   0.31808   0.85785
C          C       0.77743   0.39805   0.83296
C          C       0.87979   0.28504   0.81679
C          C       0.77663   0.37195   0.72042
C          C       0.74424   0.34852   0.69812
C          C       0.71172   0.35168   0.78730
C          C       0.71135   0.38055   0.89229
C          C       0.74388   0.40374   0.91450
C          C       0.88128   0.25056   0.89474
C          C       0.85511   0.22070   0.86624
C          C       0.82785   0.22394   0.75509
C          C       0.82895   0.25761   0.67077
C          C       0.85445   0.28772   0.70229
O          O       0.80726   0.37084   0.62613
O          O       0.85576   0.31972   0.61508
Ni         Ni      0.85137   0.36251   0.71774
C          C       0.67918   0.32385   0.77692
C          C       0.79767   0.19334   0.73195
C          C       0.64076   0.33648   0.79136
C          C       0.61036   0.30985   0.79411
C          C       0.61772   0.27012   0.78156
C          C       0.65603   0.25742   0.76465
C          C       0.68650   0.28408   0.76283
C          C       0.76194   0.20216   0.66662
C          C       0.73254   0.17444   0.65687
C          C       0.73776   0.13748   0.71441
C          C       0.77367   0.12797   0.77451
C          C       0.80340   0.15529   0.78118
C          C       0.58508   0.24265   0.78848
C          C       0.70559   0.10933   0.71365
C          C       0.93098   0.45946   0.99952
C          C       0.95813   0.42971   0.99494
C          C       0.94911   0.39377   0.93444
C          C       0.91098   0.38774   0.88105
C          C       0.88358   0.41771   0.88547
C          C       0.89379   0.45453   0.94295
C          C       0.86932   0.48960   0.93259
C          C       0.98171   0.36648   0.91399
C          C       0.87763   0.51782   0.82988
C          C       0.85419   0.55074   0.81728
C          C       0.82178   0.55529   0.90465
C          C       0.81592   0.52910   0.51668
C          C       0.84053   0.49732   0.53353
C          C       0.98844   0.33602   0.50918
C          C       0.01954   0.31070   0.98783
C          C       0.04612   0.31716   0.87841
C          C       0.04132   0.34974   0.79068
C          C       0.00931   0.37409   0.80854
N          N       0.58939   0.20637   0.75580
N          N       0.07630   0.28919   0.85615
N          N       0.15185   0.59541   0.65247
N          N       0.10010   0.64737   0.66838
C          C       0.18402   0.58535   0.59081
C          C       0.09124   0.68139   0.61882
C          C       0.22047   0.60575   0.62167
C          C       0.11508   0.71567   0.65144
C          C       0.22285   0.63190   0.73454
C          C       0.25645   0.65341   0.75638
C          C       0.28863   0.64912   0.66647
C          C       0.28716   0.62071   0.55959
C          C       0.25348   0.59893   0.53830
C          C       0.11157   0.74945   0.56957
C          C       0.13683   0.78060   0.59145
C          C       0.16534   0.77896   0.69832
C          C       0.16610   0.74633   0.78750
C          C       0.14158   0.71505   0.76319
O          O       0.19349   0.63416   0.83423
O          O       0.14308   0.68371   0.85354
Ni         Ni      0.14760   0.64054   0.75343
C          C       0.32292   0.67488   0.68244
C          C       0.19545   0.80976   0.71230
C          C       0.36055   0.66138   0.65448
C          C       0.39240   0.68620   0.66575
C          C       0.38735   0.72488   0.70670
C          C       0.34991   0.73837   0.73606
C          C       0.31807   0.71372   0.72320
C          C       0.23293   0.80025   0.75948
C          C       0.26181   0.82834   0.76872
C          C       0.25424   0.86662   0.72920
C          C       0.21696   0.87653   0.68220
C          C       0.18778   0.84843   0.67461
C          C       0.42123   0.75077   0.71652
C          C       0.28570   0.89540   0.73888
C          C       0.06581   0.53441   0.54700
C          C       0.03777   0.56334   0.54374
C          C       0.04663   0.60156   0.58161
C          C       0.08571   0.61081   0.61602
C          C       0.11411   0.58182   0.61323
C          C       0.10433   0.54264   0.58465
C          C       0.13218   0.50979   0.60027
C          C       0.01335   0.62809   0.59903
C          C       0.13053   0.47793   0.50735
C          C       0.15738   0.44783   0.51821
C          C       0.18705   0.44936   0.61855
C          C       0.18789   0.48003   0.71612
C          C       0.15999   0.50931   0.70941
C          C       0.00565   0.65727   0.99989
C          C       0.97378   0.68170   0.51753
C          C       0.94735   0.67547   0.62742
C          C       0.95258   0.64342   0.71742
C          C       0.98551   0.62012   0.70357
N          N       0.41806   0.78535   0.76970
N          N       0.91648   0.70290   0.64421
N          N       0.59535   0.84485   0.78324
N          N       0.64842   0.89545   0.76428
C          C       0.58361   0.81363   0.84721
C          C       0.68238   0.90420   0.81505
C          C       0.60423   0.77680   0.82905
C          C       0.71619   0.87894   0.79174
C          C       0.63228   0.77253   0.72324
C          C       0.65531   0.73935   0.71816
C          C       0.65031   0.70961   0.81836
C          C       0.61952   0.71254   0.91579
C          C       0.59644   0.74570   0.92021
C          C       0.74923   0.88250   0.87804
C          C       0.77972   0.85607   0.86476
C          C       0.77761   0.82617   0.76455
C          C       0.74604   0.82451   0.67181
C          C       0.71577   0.85085   0.68517
O          O       0.63537   0.79984   0.61619
O          O       0.68535   0.84931   0.59092
Ni         Ni      0.64145   0.84691   0.68731
C          C       0.67794   0.67664   0.82646
C          C       0.80700   0.79546   0.76099
C          C       0.66494   0.63961   0.86505
C          C       0.69120   0.60952   0.88694
C          C       0.73105   0.61554   0.86926
C          C       0.74420   0.65208   0.82576
C          C       0.71789   0.68242   0.80500
C          C       0.80302   0.76296   0.84876
C          C       0.83009   0.73294   0.84237
C          C       0.86117   0.73485   0.74662
C          C       0.86495   0.76748   0.65853
C          C       0.83812   0.79765   0.66624
C          C       0.75795   0.58339   0.89958
C          C       0.88971   0.70313   0.74138
C          C       0.53511   0.93251   0.87367
C          C       0.56456   0.96006   0.87778
C          C       0.60293   0.95048   0.84311
C          C       0.61174   0.91106   0.81168
C          C       0.58219   0.88324   0.81488
C          C       0.54297   0.89385   0.83845
C          C       0.50990   0.86664   0.81642
C          C       0.63024   0.98333   0.82883
C          C       0.47695   0.86799   0.90425
C          C       0.44668   0.84152   0.88562
C          C       0.44906   0.81278   0.78173
C          C       0.48103   0.81234   0.68978
C          C       0.51054   0.83967   0.70485
C          C       0.65903   0.99017   0.93045
C          C       0.68444   0.02136   0.91541
C          C       0.67924   0.04838   0.80693
C          C       0.64757   0.04416   0.71437
C          C       0.62338   0.01176   0.72525
N          N       0.79498   0.58609   0.87603
N          N       0.70740   0.07870   0.79356
N          N       0.40857   0.15490   0.63851
N          N       0.35294   0.10726   0.66746
C          C       0.42393   0.18820   0.67014
C          C       0.32149   0.09854   0.73662
C          C       0.40155   0.22412   0.65784
C          C       0.28616   0.12197   0.72209
C          C       0.37159   0.22697   0.55969
C          C       0.34976   0.26069   0.54878
C          C       0.35610   0.29179   0.64246
C          C       0.38710   0.28914   0.73943
C          C       0.41008   0.25586   0.74518
C          C       0.25483   0.11620   0.81468
C          C       0.22337   0.14171   0.81353
C          C       0.22226   0.17291   0.71749
C          C       0.25177   0.17558   0.61477
C          C       0.28339   0.15044   0.61743
O          O       0.36397   0.19637   0.97024
O          O       0.31001   0.15171   0.50752
Ni         Ni      0.35837   0.15305   0.57061
C          C       0.32930   0.32564   0.64416
C          C       0.19196   0.20358   0.72918
C          C       0.34228   0.36260   0.68493
C          C       0.31646   0.39368   0.69350
C          C       0.27728   0.38869   0.65930
C          C       0.26431   0.35211   0.61618
C          C       0.28992   0.32093   0.60962
C          C       0.20094   0.24226   0.69616
C          C       0.17348   0.27158   0.71330
C          C       0.13656   0.26313   0.76643
C          C       0.12728   0.22463   0.79942
C          C       0.15456   0.19513   0.77996
C          C       0.25043   0.42181   0.66807
C          C       0.10822   0.29473   0.78564
C          C       0.46562   0.06528   0.74919
C          C       0.43555   0.03861   0.74368
C          C       0.39727   0.05027   0.71710
C          C       0.39028   0.09025   0.69220
C          C       0.42094   0.11694   0.68605
C          C       0.45926   0.10462   0.72201
C          C       0.49355   0.12998   0.73586
C          C       0.36670   0.01974   0.71157
C          C       0.52549   0.12498   0.64548
C          C       0.55786   0.14914   0.65769
C          C       0.55836   0.17881   0.75840
C          C       0.52815   0.18123   0.85793
C          C       0.49687   0.15562   0.85062
C          C       0.33736   0.02016   0.60809
C          C       0.30902   0.99116   0.60518
C          C       0.31059   0.96016   0.70025
C          C       0.34010   0.95935   0.80286
C          C       0.36767   0.98884   0.80865
N          N       0.21538   0.41906   0.61882
N          N       0.28147   0.93054   0.69189
H          H       0.81111   0.43811   0.95678
H          H       0.92424   0.31308   0.94228
H          H       0.74478   0.32786   0.61186
H          H       0.68679   0.38359   0.96305
H          H       0.74367   0.42450   0.50077
H          H       0.90118   0.24763   0.98313
H          H       0.85519   0.19609   0.93707
H          H       0.81033   0.26117   0.57961
H          H       0.63432   0.36697   0.80157
H          H       0.58102   0.32030   0.80677
H          H       0.66230   0.22685   0.75627
H          H       0.71591   0.27363   0.75584
H          H       0.75595   0.23070   0.62604
H          H       0.70526   0.18220   0.60776
H          H       0.77860   0.09931   0.81712
H          H       0.83075   0.14630   0.82591
H          H       0.55670   0.25387   0.81503
H          H       0.68026   0.11557   0.65015
H          H       0.93956   0.48727   0.54232
H          H       0.98716   0.43536   0.53326
H          H       0.90149   0.51370   0.75680
H          H       0.85973   0.57159   0.73399
H          H       0.79279   0.53366   0.59232
H          H       0.83617   0.47782   0.62235
H          H       0.96935   0.33163   0.59920
H          H       0.02365   0.28633   0.55844
H          H       0.06110   0.35562   0.70448
H          H       0.00572   0.39869   0.73880
H          H       0.18410   0.56309   0.50990
H          H       0.06988   0.68482   0.53826
H          H       0.25713   0.67318   0.84537
H          H       0.31129   0.61660   0.98769
H          H       0.25253   0.57806   0.95246
H          H       0.09070   0.75087   0.98376
H          H       0.13530   0.80496   0.51941
H          H       0.18592   0.74442   0.87604
H          H       0.36544   0.63155   0.62495
H          H       0.42105   0.67517   0.64286
H          H       0.34536   0.76815   0.76712
H          H       0.28953   0.72530   0.74243
H          H       0.24033   0.77087   0.78692
H          H       0.29032   0.82002   0.80554
H          H       0.21053   0.90603   0.65189
H          H       0.15922   0.85712   0.64016
H          H       0.44908   0.73986   0.68225
H          H       0.31310   0.88598   0.78261
H          H       0.05667   0.50501   0.52614
H          H       0.00819   0.55545   0.51818
H          H       0.10942   0.47685   0.92244
H          H       0.15635   0.42397   0.94385
H          H       0.20922   0.48079   0.80010
H          H       0.16027   0.53176   0.78947
H          H       0.02422   0.66106   0.90815
H          H       0.96906   0.70530   0.94398
H          H       0.93221   0.63665   0.80065
H          H       0.98963   0.59607   0.77584
H          H       0.55998   0.81479   0.92230
H          H       0.68601   0.92663   0.89086
H          H       0.67710   0.73717   0.63604
H          H       0.61475   0.69029   0.99486
H          H       0.57418   0.74815   0.50087
H          H       0.75061   0.90459   0.95953
H          H       0.80435   0.85820   0.93531
H          H       0.74416   0.80224   0.59157
H          H       0.63440   0.63396   0.87959
H          H       0.68037   0.58149   0.91931
H          H       0.77484   0.65722   0.81072
H          H       0.72894   0.71068   0.77678
H          H       0.77895   0.76089   0.92202
H          H       0.82681   0.70825   0.91224
H          H       0.88867   0.76951   0.58365
H          H       0.84149   0.82252   0.59784
H          H       0.74572   0.55655   0.93850
H          H       0.88807   0.68081   0.82153
H          H       0.50567   0.94209   0.89172
H          H       0.55703   0.98979   0.90180
H          H       0.47508   0.88860   0.99057
H          H       0.42187   0.84229   0.95578
H          H       0.48261   0.79186   0.60325
H          H       0.53408   0.83975   0.62933
H          H       0.66186   0.97135   0.52190
H          H       0.70781   0.02527   0.99070
H          H       0.64219   0.06473   0.63045
H          H       0.59964   0.00839   0.65097
H          H       0.45179   0.19099   0.71564
H          H       0.32146   0.07523   0.81315
H          H       0.32747   0.26183   0.96832
H          H       0.39264   0.31199   0.81537
H          H       0.43325   0.25408   0.82260
H          H       0.25597   0.09355   0.89418
H          H       0.20128   0.13833   0.89412
H          H       0.25075   0.19727   0.53213
H          H       0.37243   0.36765   0.70942
H          H       0.32714   0.42174   0.72610
H          H       0.23420   0.34765   0.58884
H          H       0.27858   0.29300   0.57989
H          H       0.22958   0.25011   0.66048
H          H       0.18131   0.30106   0.68743
H          H       0.09882   0.21747   0.83973
H          H       0.14625   0.16573   0.80434
H          H       0.26113   0.44891   0.71010
H          H       0.11526   0.32291   0.74290
H          H       0.49449   0.05504   0.77448
H          H       0.44251   0.00838   0.75966
H          H       0.52476   0.10321   0.56268
H          H       0.58163   0.14639   0.58348
H          H       0.52912   0.20248   0.94218
H          H       0.47387   0.15748   0.92873
H          H       0.33659   0.04273   0.52870
H          H       0.28642   0.99195   0.52560
H          H       0.34120   0.93680   0.88222
H          H       0.38931   0.98790   0.89187
