data_crystal

_cell_length_a    34.55530
_cell_length_b    34.59620
_cell_length_c    9.41070
_cell_angle_alpha 90.00000
_cell_angle_beta  90.00000
_cell_angle_gamma 90.00000

_space_group_name_Hall 'P 1'
_space_group_name_H-M_alt 'P 1'

loop_
_symmetry_equiv_pos_as_xyz
 'x,y,z'

loop_
_atom_site_label
_atom_site_type_symbol
_atom_site_fract_x
_atom_site_fract_y
_atom_site_fract_z
N          N       0.84827   0.39860   0.35174
N          N       0.90048   0.34573   0.42732
C          C       0.81364   0.41238   0.33847
C          C       0.91828   0.31369   0.39776
C          C       0.77952   0.38600   0.34434
C          C       0.89526   0.28039   0.34679
C          C       0.78023   0.34911   0.41260
C          C       0.74655   0.32718   0.42218
C          C       0.71170   0.34080   0.36627
C          C       0.71037   0.37736   0.30250
C          C       0.74400   0.39972   0.29160
C          C       0.90279   0.24373   0.40341
C          C       0.87750   0.21305   0.37675
C          C       0.84531   0.21807   0.28699
C          C       0.84095   0.25342   0.21516
C          C       0.86451   0.28483   0.24851
O          O       0.81365   0.33332   0.47147
O          O       0.85346   0.32125   0.20081
Zn         Zn      0.85275   0.34846   0.36224
C          C       0.67708   0.31609   0.37414
C          C       0.81364   0.18895   0.28386
C          C       0.64378   0.32877   0.44540
C          C       0.61177   0.30428   0.45865
C          C       0.61259   0.26701   0.39986
C          C       0.64615   0.25436   0.32898
C          C       0.67813   0.27872   0.31652
C          C       0.77482   0.20129   0.27958
C          C       0.74463   0.17465   0.28617
C          C       0.75239   0.13512   0.30024
C          C       0.79102   0.12249   0.30502
C          C       0.82138   0.14917   0.29609
C          C       0.57809   0.24201   0.40975
C          C       0.71968   0.10787   0.30684
C          C       0.92893   0.46429   0.48307
C          C       0.95763   0.43685   0.00648
C          C       0.95034   0.39735   0.48720
C          C       0.91309   0.38548   0.44107
C          C       0.88437   0.41386   0.40771
C          C       0.89210   0.45349   0.43528
C          C       0.86255   0.48405   0.42790
C          C       0.98360   0.37090   0.00053
C          C       0.86622   0.51443   0.33050
C          C       0.83810   0.54337   0.32482
C          C       0.80598   0.54231   0.41551
C          C       0.80316   0.51263   0.01732
C          C       0.83179   0.48424   0.02491
C          C       0.98488   0.34178   0.10401
C          C       0.01523   0.31489   0.10424
C          C       0.04501   0.31762   0.00360
C          C       0.04507   0.34868   0.40738
C          C       0.01461   0.37500   0.40595
N          N       0.57822   0.20830   0.34952
N          N       0.07373   0.28776   0.49630
N          N       0.15593   0.60182   0.09142
N          N       0.10092   0.65641   0.06735
C          C       0.18818   0.59098   0.03268
C          C       0.08375   0.68756   0.11181
C          C       0.22295   0.61637   0.03569
C          C       0.10754   0.71907   0.17294
C          C       0.22101   0.65727   0.02780
C          C       0.25475   0.67935   0.02914
C          C       0.29108   0.66187   0.04208
C          C       0.29335   0.62136   0.04523
C          C       0.25963   0.59888   0.04086
C          C       0.09891   0.75758   0.13866
C          C       0.12443   0.78734   0.17622
C          C       0.15869   0.77900   0.25044
C          C       0.16514   0.74105   0.29790
C          C       0.13995   0.71109   0.26023
O          O       0.18617   0.67699   0.01818
O          O       0.15053   0.67301   0.29042
Zn         Zn      0.15015   0.65233   0.11883
C          C       0.32608   0.68637   0.05606
C          C       0.18985   0.80839   0.26370
C          C       0.35932   0.67894   0.47474
C          C       0.39152   0.70337   0.48411
C          C       0.39118   0.73547   0.07552
C          C       0.35817   0.74243   0.15905
C          C       0.32595   0.71819   0.14903
C          C       0.22815   0.79826   0.22956
C          C       0.25787   0.82545   0.23873
C          C       0.25001   0.86341   0.28240
C          C       0.21183   0.87383   0.31589
C          C       0.18187   0.84658   0.30574
C          C       0.42531   0.76127   0.08198
C          C       0.28271   0.89136   0.30573
C          C       0.06823   0.53813   0.03250
C          C       0.03987   0.56631   0.01612
C          C       0.04871   0.60576   0.02373
C          C       0.08781   0.61688   0.04821
C          C       0.11723   0.58773   0.06252
C          C       0.10730   0.54774   0.05482
C          C       0.13561   0.51501   0.06718
C          C       0.01594   0.63331   0.01107
C          C       0.13222   0.48294   0.47560
C          C       0.15778   0.45177   0.48490
C          C       0.18836   0.45227   0.08185
C          C       0.19174   0.48374   0.17603
C          C       0.16495   0.51428   0.17116
C          C       0.01589   0.66260   0.40809
C          C       0.98587   0.68981   0.40366
C          C       0.95430   0.68692   0.49668
C          C       0.95348   0.65636   0.09563
C          C       0.98395   0.62986   0.10229
N          N       0.42539   0.79147   0.16439
N          N       0.92486   0.71642   0.49362
N          N       0.60064   0.84675   0.24777
N          N       0.65812   0.89832   0.28116
C          C       0.58642   0.81580   0.30588
C          C       0.69039   0.91391   0.23955
C          C       0.60971   0.78000   0.32376
C          C       0.72075   0.88878   0.17732
C          C       0.65069   0.77955   0.33560
C          C       0.67007   0.74497   0.36025
C          C       0.65005   0.70999   0.37102
C          C       0.60953   0.71022   0.36358
C          C       0.58962   0.74493   0.34095
C          C       0.75965   0.89524   0.21271
C          C       0.78834   0.86915   0.16959
C          C       0.77861   0.83648   0.08836
C          C       0.74026   0.83198   0.04221
C          C       0.71133   0.85764   0.08596
O          O       0.67349   0.81246   0.32637
O          O       0.67280   0.84902   0.05461
Zn         Zn      0.65148   0.84975   0.22548
C          C       0.67224   0.67375   0.38843
C          C       0.80705   0.80485   0.06573
C          C       0.66135   0.64592   0.48938
C          C       0.68456   0.61335   0.01246
C          C       0.71895   0.60828   0.43518
C          C       0.72918   0.63564   0.33153
C          C       0.70606   0.66796   0.30840
C          C       0.79633   0.76644   0.09483
C          C       0.82320   0.73648   0.08267
C          C       0.86139   0.74408   0.04061
C          C       0.87208   0.78236   0.00839
C          C       0.84516   0.81253   0.02169
C          C       0.74436   0.57502   0.46498
C          C       0.88947   0.71176   0.03754
C          C       0.54125   0.93688   0.31148
C          C       0.57075   0.96326   0.33838
C          C       0.60986   0.95264   0.32925
C          C       0.61926   0.91350   0.29846
C          C       0.58876   0.88617   0.27545
C          C       0.54942   0.89830   0.27681
C          C       0.51650   0.87227   0.23938
C          C       0.63866   0.98415   0.34049
C          C       0.48207   0.87294   0.31901
C          C       0.45233   0.84664   0.29074
C          C       0.45623   0.81900   0.18315
C          C       0.48987   0.81943   0.09852
C          C       0.51919   0.84643   0.12474
C          C       0.66836   0.98347   0.44200
C          C       0.69654   0.01259   0.44349
C          C       0.69412   0.04382   0.34894
C          C       0.66321   0.04537   0.25191
C          C       0.63582   0.01584   0.24799
N          N       0.77738   0.57208   0.39998
N          N       0.72439   0.07231   0.34788
N          N       0.40153   0.15611   0.25179
N          N       0.34463   0.10411   0.20927
C          C       0.42004   0.18729   0.21568
C          C       0.31280   0.09195   0.26798
C          C       0.39774   0.22177   0.17325
C          C       0.27920   0.11795   0.29209
C          C       0.36473   0.21888   0.08534
C          C       0.34278   0.25196   0.05474
C          C       0.35249   0.28799   0.11538
C          C       0.38638   0.29058   0.19807
C          C       0.40910   0.25798   0.22424
C          C       0.24214   0.10120   0.29924
C          C       0.20945   0.12373   0.32954
C          C       0.21339   0.16335   0.35810
C          C       0.25030   0.17990   0.35373
C          C       0.28275   0.15805   0.31987
O          O       0.35133   0.18265   0.04242
O          O       0.31777   0.17757   0.31672
Zn         Zn      0.35191   0.15539   0.20262
C          C       0.32615   0.32211   0.10280
C          C       0.17957   0.18879   0.38311
C          C       0.34127   0.35989   0.09928
C          C       0.31676   0.39205   0.10317
C          C       0.27646   0.38739   0.10752
C          C       0.26106   0.34976   0.10610
C          C       0.28563   0.31750   0.10464
C          C       0.18226   0.21929   0.48169
C          C       0.15454   0.24858   0.48359
C          C       0.12347   0.24753   0.38820
C          C       0.11899   0.21579   0.29734
C          C       0.14678   0.18640   0.29516
C          C       0.25133   0.42208   0.11425
C          C       0.09782   0.28186   0.37102
C          C       0.46003   0.06356   0.26605
C          C       0.43100   0.03686   0.23914
C          C       0.39217   0.04810   0.22429
C          C       0.38312   0.08831   0.22953
C          C       0.41335   0.11596   0.25450
C          C       0.45200   0.10311   0.27628
C          C       0.48513   0.12916   0.30514
C          C       0.36305   0.01634   0.21530
C          C       0.51857   0.12638   0.22111
C          C       0.54919   0.15199   0.24074
C          C       0.54683   0.18127   0.34246
C          C       0.51415   0.18319   0.43169
C          C       0.48395   0.15653   0.41515
C          C       0.33344   0.01558   0.11282
C          C       0.30627   0.98533   0.11160
C          C       0.30907   0.95480   0.20938
C          C       0.33935   0.95510   0.30878
C          C       0.36580   0.98544   0.31177
N          N       0.21474   0.42006   0.08310
N          N       0.28123   0.92386   0.20658
H          H       0.80848   0.44276   0.32438
H          H       0.94902   0.31036   0.40632
H          H       0.74771   0.29906   0.47287
H          H       0.68342   0.38836   0.25972
H          H       0.74222   0.42794   0.24200
H          H       0.92645   0.23964   0.47744
H          H       0.88184   0.18626   0.43387
H          H       0.81706   0.25784   0.14242
H          H       0.64287   0.35729   0.49286
H          H       0.58634   0.31445   0.01468
H          H       0.64775   0.22573   0.28270
H          H       0.70369   0.26850   0.26137
H          H       0.76759   0.23169   0.27504
H          H       0.71508   0.18506   0.28288
H          H       0.79777   0.09204   0.31455
H          H       0.85086   0.13864   0.29887
H          H       0.55230   0.25308   0.46075
H          H       0.69114   0.11853   0.27971
H          H       0.93544   0.49440   0.00416
H          H       0.98595   0.44652   0.04093
H          H       0.89047   0.51539   0.25760
H          H       0.84090   0.56638   0.24742
H          H       0.77942   0.51110   0.09174
H          H       0.82938   0.46144   0.10270
H          H       0.96137   0.33875   0.17851
H          H       0.01490   0.29128   0.17977
H          H       0.06790   0.35223   0.32998
H          H       0.01439   0.39773   0.32671
H          H       0.19048   0.56328   0.48052
H          H       0.05291   0.69126   0.10984
H          H       0.25242   0.71054   0.02274
H          H       0.32112   0.60711   0.05427
H          H       0.26210   0.56769   0.04496
H          H       0.07375   0.76433   0.07462
H          H       0.11869   0.81639   0.13900
H          H       0.19144   0.73427   0.35498
H          H       0.35996   0.65486   0.40122
H          H       0.41658   0.69744   0.41853
H          H       0.35714   0.76661   0.23204
H          H       0.30089   0.72419   0.21468
H          H       0.23509   0.76926   0.19450
H          H       0.28713   0.81663   0.21323
H          H       0.20538   0.90283   0.35217
H          H       0.15266   0.85511   0.33316
H          H       0.45025   0.75408   0.01794
H          H       0.31111   0.87650   0.29534
H          H       0.05917   0.50817   0.02909
H          H       0.01031   0.55704   0.49803
H          H       0.11004   0.48214   0.39436
H          H       0.15453   0.42763   0.41259
H          H       0.21431   0.48423   0.25575
H          H       0.16736   0.53747   0.24775
H          H       0.03998   0.66523   0.33597
H          H       0.98713   0.71317   0.32725
H          H       0.93030   0.65371   0.17222
H          H       0.98315   0.60727   0.18198
H          H       0.55717   0.81561   0.34621
H          H       0.69565   0.94446   0.24336
H          H       0.70132   0.74552   0.36989
H          H       0.59333   0.68354   0.37310
H          H       0.55830   0.74433   0.33572
H          H       0.76748   0.91920   0.28101
H          H       0.81773   0.87330   0.20656
H          H       0.73244   0.80683   0.48042
H          H       0.63574   0.65008   0.05394
H          H       0.67622   0.59270   0.09337
H          H       0.75524   0.63233   0.26874
H          H       0.71478   0.68862   0.22804
H          H       0.76736   0.75968   0.13118
H          H       0.81423   0.70729   0.10845
H          H       0.90134   0.78908   0.47549
H          H       0.85407   0.84185   0.49793
H          H       0.73503   0.55370   0.04163
H          H       0.87968   0.68366   0.07322
H          H       0.51168   0.94728   0.31322
H          H       0.56287   0.99289   0.36232
H          H       0.47867   0.89279   0.40710
H          H       0.42659   0.84695   0.35640
H          H       0.49369   0.79965   0.01089
H          H       0.54448   0.84673   0.05738
H          H       0.67058   0.95953   0.01499
H          H       0.72022   0.01094   0.01862
H          H       0.66097   0.06841   0.17462
H          H       0.61293   0.01713   0.16945
H          H       0.45105   0.18877   0.20949
H          H       0.31041   0.06281   0.30740
H          H       0.31711   0.24901   0.48971
H          H       0.39453   0.31748   0.24862
H          H       0.43448   0.26065   0.29117
H          H       0.23845   0.07052   0.28050
H          H       0.18123   0.11015   0.33194
H          H       0.25402   0.21062   0.37145
H          H       0.37220   0.36470   0.09481
H          H       0.32936   0.42072   0.10269
H          H       0.23007   0.34522   0.10990
H          H       0.27281   0.28898   0.10981
H          H       0.20683   0.22139   0.05285
H          H       0.15830   0.27297   0.05454
H          H       0.09518   0.21491   0.22251
H          H       0.14406   0.16344   0.21755
H          H       0.26448   0.44984   0.13703
H          H       0.11594   0.30776   0.34999
H          H       0.48928   0.05298   0.28071
H          H       0.43907   0.00664   0.23234
H          H       0.52049   0.10517   0.13676
H          H       0.57433   0.14999   0.17239
H          H       0.51186   0.20473   0.01450
H          H       0.45884   0.15827   0.48314
H          H       0.33116   0.03854   0.03528
H          H       0.28331   0.98545   0.03327
H          H       0.34242   0.93233   0.38668
H          H       0.38823   0.98504   0.39218
N          N       0.84827   0.39860   0.85173
N          N       0.90048   0.34573   0.92732
C          C       0.81364   0.41238   0.83847
C          C       0.91828   0.31369   0.89776
C          C       0.77952   0.38600   0.84434
C          C       0.89526   0.28039   0.84679
C          C       0.78023   0.34911   0.91260
C          C       0.74655   0.32718   0.92218
C          C       0.71170   0.34080   0.86627
C          C       0.71037   0.37736   0.80250
C          C       0.74400   0.39972   0.79160
C          C       0.90279   0.24373   0.90341
C          C       0.87750   0.21305   0.87675
C          C       0.84531   0.21807   0.78699
C          C       0.84095   0.25342   0.71515
C          C       0.86451   0.28483   0.74851
O          O       0.81365   0.33332   0.97147
O          O       0.85346   0.32125   0.70081
Zn         Zn      0.85275   0.34846   0.86224
C          C       0.67708   0.31609   0.87414
C          C       0.81364   0.18895   0.78386
C          C       0.64378   0.32877   0.94540
C          C       0.61177   0.30428   0.95865
C          C       0.61259   0.26701   0.89986
C          C       0.64615   0.25436   0.82898
C          C       0.67813   0.27872   0.81652
C          C       0.77482   0.20129   0.77958
C          C       0.74463   0.17465   0.78617
C          C       0.75239   0.13512   0.80024
C          C       0.79102   0.12249   0.80502
C          C       0.82138   0.14917   0.79609
C          C       0.57809   0.24201   0.90975
C          C       0.71968   0.10787   0.80685
C          C       0.92893   0.46429   0.98307
C          C       0.95763   0.43685   0.50648
C          C       0.95034   0.39735   0.98721
C          C       0.91309   0.38548   0.94107
C          C       0.88437   0.41386   0.90771
C          C       0.89210   0.45349   0.93529
C          C       0.86255   0.48405   0.92790
C          C       0.98360   0.37090   0.50053
C          C       0.86622   0.51443   0.83050
C          C       0.83810   0.54337   0.82482
C          C       0.80598   0.54231   0.91550
C          C       0.80316   0.51263   0.51732
C          C       0.83179   0.48424   0.52491
C          C       0.98488   0.34178   0.60401
C          C       0.01523   0.31489   0.60424
C          C       0.04501   0.31762   0.50360
C          C       0.04507   0.34868   0.90738
C          C       0.01461   0.37500   0.90595
N          N       0.57822   0.20830   0.84952
N          N       0.07373   0.28776   0.99630
N          N       0.15593   0.60182   0.59142
N          N       0.10092   0.65641   0.56735
C          C       0.18818   0.59098   0.53268
C          C       0.08375   0.68756   0.61181
C          C       0.22295   0.61637   0.53569
C          C       0.10754   0.71907   0.67295
C          C       0.22101   0.65727   0.52780
C          C       0.25475   0.67935   0.52914
C          C       0.29108   0.66187   0.54207
C          C       0.29335   0.62136   0.54523
C          C       0.25963   0.59888   0.54086
C          C       0.09891   0.75758   0.63866
C          C       0.12443   0.78734   0.67622
C          C       0.15869   0.77900   0.75044
C          C       0.16514   0.74105   0.79790
C          C       0.13995   0.71109   0.76024
O          O       0.18617   0.67699   0.51818
O          O       0.15053   0.67301   0.79042
Zn         Zn      0.15015   0.65233   0.61883
C          C       0.32608   0.68637   0.55605
C          C       0.18985   0.80839   0.76370
C          C       0.35932   0.67894   0.97475
C          C       0.39152   0.70337   0.98411
C          C       0.39118   0.73547   0.57552
C          C       0.35817   0.74243   0.65905
C          C       0.32595   0.71819   0.64903
C          C       0.22815   0.79826   0.72956
C          C       0.25787   0.82545   0.73873
C          C       0.25001   0.86341   0.78240
C          C       0.21183   0.87383   0.81589
C          C       0.18187   0.84658   0.80574
C          C       0.42531   0.76127   0.58198
C          C       0.28271   0.89136   0.80573
C          C       0.06823   0.53813   0.53251
C          C       0.03987   0.56631   0.51612
C          C       0.04871   0.60576   0.52373
C          C       0.08781   0.61688   0.54821
C          C       0.11723   0.58773   0.56253
C          C       0.10730   0.54774   0.55482
C          C       0.13561   0.51501   0.56719
C          C       0.01594   0.63331   0.51106
C          C       0.13222   0.48294   0.97561
C          C       0.15778   0.45177   0.98491
C          C       0.18836   0.45227   0.58185
C          C       0.19174   0.48374   0.67603
C          C       0.16495   0.51428   0.67115
C          C       0.01589   0.66260   0.90809
C          C       0.98587   0.68981   0.90366
C          C       0.95430   0.68692   0.99668
C          C       0.95348   0.65636   0.59562
C          C       0.98395   0.62986   0.60229
N          N       0.42539   0.79147   0.66439
N          N       0.92486   0.71642   0.99361
N          N       0.60064   0.84675   0.74777
N          N       0.65812   0.89832   0.78116
C          C       0.58642   0.81580   0.80588
C          C       0.69039   0.91391   0.73955
C          C       0.60971   0.78000   0.82376
C          C       0.72075   0.88878   0.67732
C          C       0.65069   0.77955   0.83560
C          C       0.67007   0.74497   0.86025
C          C       0.65005   0.70999   0.87102
C          C       0.60953   0.71022   0.86358
C          C       0.58962   0.74493   0.84095
C          C       0.75965   0.89524   0.71271
C          C       0.78834   0.86915   0.66959
C          C       0.77861   0.83648   0.58836
C          C       0.74026   0.83198   0.54221
C          C       0.71133   0.85764   0.58596
O          O       0.67349   0.81246   0.82637
O          O       0.67280   0.84902   0.55461
Zn         Zn      0.65148   0.84975   0.72548
C          C       0.67224   0.67375   0.88843
C          C       0.80705   0.80485   0.56573
C          C       0.66135   0.64592   0.98938
C          C       0.68456   0.61335   0.51246
C          C       0.71895   0.60828   0.93518
C          C       0.72918   0.63564   0.83153
C          C       0.70606   0.66796   0.80840
C          C       0.79633   0.76644   0.59482
C          C       0.82320   0.73648   0.58267
C          C       0.86139   0.74408   0.54061
C          C       0.87208   0.78236   0.50840
C          C       0.84516   0.81253   0.52169
C          C       0.74436   0.57502   0.96498
C          C       0.88947   0.71176   0.53754
C          C       0.54125   0.93688   0.81148
C          C       0.57075   0.96326   0.83838
C          C       0.60986   0.95264   0.82924
C          C       0.61926   0.91350   0.79846
C          C       0.58876   0.88617   0.77545
C          C       0.54942   0.89830   0.77680
C          C       0.51650   0.87227   0.73938
C          C       0.63866   0.98415   0.84049
C          C       0.48207   0.87294   0.81901
C          C       0.45233   0.84664   0.79075
C          C       0.45623   0.81900   0.68315
C          C       0.48987   0.81943   0.59852
C          C       0.51919   0.84643   0.62474
C          C       0.66836   0.98347   0.94200
C          C       0.69654   0.01259   0.94349
C          C       0.69412   0.04382   0.84894
C          C       0.66321   0.04537   0.75191
C          C       0.63582   0.01584   0.74799
N          N       0.77738   0.57208   0.89997
N          N       0.72439   0.07231   0.84788
N          N       0.40153   0.15611   0.75179
N          N       0.34463   0.10411   0.70927
C          C       0.42004   0.18729   0.71568
C          C       0.31280   0.09195   0.76797
C          C       0.39774   0.22177   0.67324
C          C       0.27920   0.11795   0.79209
C          C       0.36473   0.21888   0.58534
C          C       0.34278   0.25196   0.55474
C          C       0.35249   0.28799   0.61538
C          C       0.38638   0.29058   0.69807
C          C       0.40910   0.25798   0.72424
C          C       0.24214   0.10120   0.79924
C          C       0.20945   0.12373   0.82953
C          C       0.21339   0.16335   0.85810
C          C       0.25030   0.17990   0.85373
C          C       0.28275   0.15805   0.81986
O          O       0.35133   0.18265   0.54243
O          O       0.31777   0.17757   0.81673
Zn         Zn      0.35191   0.15539   0.70262
C          C       0.32615   0.32211   0.60281
C          C       0.17957   0.18879   0.88311
C          C       0.34127   0.35989   0.59929
C          C       0.31676   0.39205   0.60317
C          C       0.27646   0.38739   0.60752
C          C       0.26106   0.34976   0.60610
C          C       0.28563   0.31750   0.60464
C          C       0.18226   0.21929   0.98169
C          C       0.15454   0.24858   0.98359
C          C       0.12347   0.24753   0.88820
C          C       0.11899   0.21579   0.79734
C          C       0.14678   0.18640   0.79516
C          C       0.25133   0.42208   0.61425
C          C       0.09782   0.28186   0.87102
C          C       0.46003   0.06356   0.76605
C          C       0.43100   0.03686   0.73914
C          C       0.39217   0.04810   0.72429
C          C       0.38312   0.08831   0.72953
C          C       0.41335   0.11596   0.75451
C          C       0.45200   0.10311   0.77628
C          C       0.48513   0.12916   0.80514
C          C       0.36305   0.01634   0.71530
C          C       0.51857   0.12638   0.72111
C          C       0.54919   0.15199   0.74074
C          C       0.54683   0.18127   0.84246
C          C       0.51415   0.18319   0.93169
C          C       0.48395   0.15653   0.91515
C          C       0.33344   0.01558   0.61282
C          C       0.30627   0.98533   0.61160
C          C       0.30907   0.95480   0.70938
C          C       0.33935   0.95510   0.80878
C          C       0.36580   0.98544   0.81176
N          N       0.21474   0.42006   0.58310
N          N       0.28123   0.92386   0.70658
H          H       0.80848   0.44276   0.82438
H          H       0.94902   0.31036   0.90632
H          H       0.74771   0.29906   0.97287
H          H       0.68342   0.38836   0.75972
H          H       0.74222   0.42794   0.74200
H          H       0.92645   0.23964   0.97743
H          H       0.88184   0.18626   0.93388
H          H       0.81706   0.25784   0.64242
H          H       0.64287   0.35729   0.99286
H          H       0.58634   0.31445   0.51468
H          H       0.64775   0.22573   0.78270
H          H       0.70369   0.26850   0.76137
H          H       0.76759   0.23169   0.77504
H          H       0.71508   0.18506   0.78288
H          H       0.79777   0.09204   0.81455
H          H       0.85086   0.13864   0.79887
H          H       0.55230   0.25308   0.96075
H          H       0.69114   0.11853   0.77971
H          H       0.93544   0.49440   0.50416
H          H       0.98595   0.44652   0.54093
H          H       0.89047   0.51539   0.75761
H          H       0.84090   0.56638   0.74742
H          H       0.77942   0.51110   0.59174
H          H       0.82938   0.46144   0.60270
H          H       0.96137   0.33875   0.67851
H          H       0.01490   0.29128   0.67977
H          H       0.06790   0.35223   0.82998
H          H       0.01439   0.39773   0.82671
H          H       0.19048   0.56328   0.98053
H          H       0.05291   0.69126   0.60984
H          H       0.25242   0.71054   0.52274
H          H       0.32112   0.60711   0.55428
H          H       0.26210   0.56769   0.54496
H          H       0.07375   0.76433   0.57461
H          H       0.11869   0.81639   0.63900
H          H       0.19144   0.73427   0.85499
H          H       0.35996   0.65486   0.90123
H          H       0.41658   0.69744   0.91853
H          H       0.35714   0.76661   0.73204
H          H       0.30089   0.72419   0.71468
H          H       0.23509   0.76926   0.69450
H          H       0.28713   0.81663   0.71323
H          H       0.20538   0.90283   0.85217
H          H       0.15266   0.85511   0.83316
H          H       0.45025   0.75408   0.51794
H          H       0.31111   0.87650   0.79534
H          H       0.05917   0.50817   0.52909
H          H       0.01031   0.55704   0.99803
H          H       0.11004   0.48214   0.89435
H          H       0.15453   0.42763   0.91260
H          H       0.21431   0.48423   0.75575
H          H       0.16736   0.53747   0.74775
H          H       0.03998   0.66523   0.83596
H          H       0.98713   0.71317   0.82725
H          H       0.93030   0.65371   0.67222
H          H       0.98315   0.60727   0.68198
H          H       0.55717   0.81561   0.84622
H          H       0.69565   0.94446   0.74337
H          H       0.70132   0.74552   0.86989
H          H       0.59333   0.68354   0.87310
H          H       0.55830   0.74433   0.83572
H          H       0.76748   0.91920   0.78101
H          H       0.81773   0.87330   0.70656
H          H       0.73244   0.80683   0.98042
H          H       0.63574   0.65008   0.55394
H          H       0.67622   0.59270   0.59337
H          H       0.75524   0.63233   0.76873
H          H       0.71478   0.68862   0.72803
H          H       0.76736   0.75968   0.63118
H          H       0.81423   0.70729   0.60845
H          H       0.90134   0.78908   0.97549
H          H       0.85407   0.84185   0.99793
H          H       0.73503   0.55370   0.54163
H          H       0.87968   0.68366   0.57322
H          H       0.51168   0.94728   0.81322
H          H       0.56287   0.99289   0.86232
H          H       0.47867   0.89279   0.90711
H          H       0.42659   0.84695   0.85640
H          H       0.49369   0.79965   0.51088
H          H       0.54448   0.84673   0.55738
H          H       0.67058   0.95953   0.51499
H          H       0.72022   0.01094   0.51862
H          H       0.66097   0.06841   0.67462
H          H       0.61293   0.01713   0.66945
H          H       0.45105   0.18877   0.70949
H          H       0.31041   0.06281   0.80740
H          H       0.31711   0.24901   0.98971
H          H       0.39453   0.31748   0.74862
H          H       0.43448   0.26065   0.79117
H          H       0.23845   0.07052   0.78050
H          H       0.18123   0.11015   0.83195
H          H       0.25402   0.21062   0.87145
H          H       0.37220   0.36470   0.59481
H          H       0.32936   0.42072   0.60269
H          H       0.23007   0.34522   0.60990
H          H       0.27281   0.28898   0.60981
H          H       0.20683   0.22139   0.55285
H          H       0.15830   0.27297   0.55454
H          H       0.09518   0.21491   0.72251
H          H       0.14406   0.16344   0.71755
H          H       0.26448   0.44984   0.63703
H          H       0.11594   0.30776   0.84999
H          H       0.48928   0.05298   0.78071
H          H       0.43907   0.00664   0.73234
H          H       0.52049   0.10517   0.63676
H          H       0.57433   0.14999   0.67239
H          H       0.51186   0.20473   0.51450
H          H       0.45884   0.15827   0.98314
H          H       0.33116   0.03854   0.53529
H          H       0.28331   0.98545   0.53326
H          H       0.34242   0.93233   0.88668
H          H       0.38823   0.98504   0.89218
