data_crystal

_cell_length_a    55.79070
_cell_length_b    56.01020
_cell_length_c    11.80900
_cell_angle_alpha 90.00000
_cell_angle_beta  90.00000
_cell_angle_gamma 120.00000

_space_group_name_Hall 'P 1'
_space_group_name_H-M_alt 'P 1'

loop_
_symmetry_equiv_pos_as_xyz
 'x,y,z'

loop_
_atom_site_label
_atom_site_type_symbol
_atom_site_fract_x
_atom_site_fract_y
_atom_site_fract_z
C          C       0.49482   0.00510   0.23342
C          C       0.51956   0.00450   0.22476
C          C       0.47381   0.97735   0.49484
C          C       0.46539   0.98030   0.24022
C          C       0.49983   0.98543   0.46640
C          C       0.52350   0.97922   0.22667
C          C       0.44200   0.98314   0.21607
C          C       0.41540   0.96003   0.20678
C          C       0.41123   0.93355   0.22309
C          C       0.43339   0.93068   0.26062
C          C       0.45971   0.95360   0.27000
C          C       0.50758   0.95490   0.16212
C          C       0.51180   0.93260   0.16703
C          C       0.53150   0.93276   0.23866
C          C       0.54826   0.95650   0.30211
C          C       0.54464   0.97950   0.29450
C          C       0.38079   0.88621   0.17067
C          C       0.35302   0.86161   0.16049
C          C       0.54437   0.90093   0.32532
C          C       0.54182   0.87342   0.32098
C          C       0.32885   0.86281   0.18100
C          C       0.30291   0.83871   0.17852
C          C       0.30080   0.81310   0.15599
C          C       0.32495   0.81205   0.13293
C          C       0.35079   0.83613   0.13440
C          C       0.27369   0.78736   0.16323
C          C       0.27074   0.76509   0.22969
C          C       0.25005   0.78438   0.10784
C          C       0.24478   0.74105   0.24121
C          C       0.22137   0.73892   0.18665
C          C       0.19387   0.71429   0.20145
C          C       0.22487   0.76101   0.11917
C          C       0.17227   0.71682   0.24953
C          C       0.14591   0.69367   0.26068
C          C       0.14069   0.66773   0.22270
C          C       0.16244   0.66528   0.17476
C          C       0.18892   0.68839   0.16511
C          C       0.11267   0.64358   0.23616
C          C       0.08007   0.59475   0.20811
C          C       0.06282   0.59088   0.30147
C          C       0.03832   0.56585   0.31694
C          C       0.03060   0.54413   0.23991
C          C       0.04787   0.54791   0.14707
C          C       0.07247   0.57299   0.13167
C          C       0.00514   0.51708   0.25841
C          C       0.00606   0.49337   0.26849
C          C       0.03282   0.49365   0.27683
C          C       0.03923   0.47812   0.20198
C          C       0.06462   0.47904   0.20928
C          C       0.08420   0.49561   0.28981
C          C       0.07792   0.51101   0.36589
C          C       0.05237   0.50996   0.35935
C          C       0.13335   0.51499   0.33067
C          C       0.15797   0.51169   0.32441
C          C       0.15500   0.48560   0.30529
C          C       0.17822   0.48258   0.29354
C          C       0.20499   0.50559   0.30037
C          C       0.20799   0.53167   0.32177
C          C       0.18465   0.53468   0.33384
C          C       0.22947   0.50225   0.28073
C          C       0.25344   0.51551   0.34817
C          C       0.22907   0.48490   0.19291
C          C       0.25169   0.48083   0.17553
C          C       0.27557   0.51177   0.33015
C          C       0.27531   0.49431   0.24452
C          C       0.29865   0.48933   0.22928
C          C       0.29503   0.46308   0.24993
C          C       0.31756   0.45871   0.24352
C          C       0.34392   0.48046   0.21483
C          C       0.34727   0.50650   0.18980
C          C       0.32479   0.51095   0.19796
C          C       0.36785   0.47606   0.21921
C          C       0.41681   0.49320   0.19839
C          C       0.42080   0.48070   0.29424
C          C       0.44544   0.48031   0.30832
C          C       0.46646   0.49236   0.22676
C          C       0.46251   0.50496   0.13135
C          C       0.43798   0.50571   0.11810
C          C       0.49304   0.49287   0.24305
C          C       0.51736   0.51703   0.24961
C          C       0.49264   0.46628   0.24058
C          C       0.51775   0.54362   0.25350
C          C       0.54382   0.51743   0.26831
C          C       0.54736   0.50510   0.36556
C          C       0.57169   0.50416   0.38164
C          C       0.59318   0.51644   0.30271
C          C       0.58970   0.52877   0.20516
C          C       0.56515   0.52919   0.18795
C          C       0.52723   0.56177   0.16112
C          C       0.52624   0.58621   0.16462
C          C       0.51554   0.59275   0.25947
C          C       0.50593   0.57440   0.35190
C          C       0.50697   0.55000   0.34847
C          C       0.48372   0.44864   0.33465
C          C       0.48501   0.42438   0.33296
C          C       0.49537   0.41745   0.23828
C          C       0.50451   0.43531   0.14420
C          C       0.50316   0.45954   0.14586
C          C       0.52585   0.85460   0.23578
C          C       0.52173   0.82791   0.23537
C          C       0.53379   0.81960   0.31925
C          C       0.55036   0.83854   0.40302
C          C       0.55421   0.86525   0.40426
C          C       0.52873   0.79105   0.31940
C          C       0.50151   0.76841   0.31481
C          C       0.55063   0.78556   0.32270
C          C       0.49678   0.74126   0.31471
C          C       0.54605   0.75922   0.32095
C          C       0.51919   0.73634   0.31701
C          C       0.51435   0.70789   0.31694
C          C       0.49644   0.68871   0.39677
C          C       0.49257   0.66204   0.39970
C          C       0.50637   0.65408   0.32214
C          C       0.52390   0.67319   0.24082
C          C       0.52790   0.69990   0.23840
C          C       0.50286   0.62616   0.32922
C          C       0.64230   0.53421   0.29103
C          C       0.66629   0.53001   0.29807
C          C       0.66269   0.50348   0.31161
C          C       0.68542   0.49943   0.30530
C          C       0.71205   0.52188   0.28739
C          C       0.71584   0.54852   0.27888
C          C       0.69306   0.55253   0.28311
C          C       0.73572   0.51737   0.27249
C          C       0.75872   0.53011   0.34490
C          C       0.73615   0.50070   0.18505
C          C       0.78120   0.52570   0.33028
C          C       0.75832   0.49692   0.16850
C          C       0.78169   0.50915   0.24039
C          C       0.80636   0.50560   0.22354
C          C       0.80391   0.48112   0.17865
C          C       0.82729   0.47821   0.16489
C          C       0.85344   0.49926   0.19931
C          C       0.85598   0.52362   0.24407
C          C       0.83289   0.52689   0.25462
C          C       0.87793   0.49576   0.19045
C          C       0.92567   0.51173   0.24924
C          C       0.93459   0.50210   0.15753
C          C       0.96076   0.50444   0.16004
C          C       0.97816   0.51618   0.25409
C          C       0.96892   0.52512   0.34651
C          C       0.94302   0.52323   0.34301
C          C       0.98007   0.46652   0.27994
C          C       0.96349   0.46086   0.37695
C          C       0.93814   0.43625   0.38505
C          C       0.92920   0.41695   0.29720
C          C       0.94548   0.42294   0.19896
C          C       0.97049   0.44766   0.19012
C          C       0.50560   0.38243   0.16576
C          C       0.50389   0.35551   0.18269
C          C       0.49112   0.33946   0.27931
C          C       0.48934   0.31383   0.29346
C          C       0.50034   0.30386   0.21130
C          C       0.51319   0.31997   0.11498
C          C       0.51491   0.34556   0.10069
C          C       0.49829   0.27661   0.22468
C          C       0.47322   0.25290   0.25310
C          C       0.52153   0.27351   0.20481
C          C       0.47101   0.22750   0.25847
C          C       0.51929   0.24741   0.21146
C          C       0.49371   0.22387   0.23684
C          C       0.49084   0.19619   0.23370
C          C       0.47051   0.17551   0.16520
C          C       0.46862   0.14976   0.15695
C          C       0.48701   0.14427   0.21705
C          C       0.50706   0.16478   0.28731
C          C       0.50906   0.19065   0.29507
C          C       0.48503   0.11718   0.20396
C          C       0.50082   0.08518   0.24852
C          C       0.49179   0.06926   0.14924
C          C       0.49025   0.04365   0.14457
C          C       0.49693   0.03301   0.23946
C          C       0.50732   0.04980   0.33653
C          C       0.50951   0.07568   0.33990
C          C       0.54569   0.03181   0.21384
C          C       0.56385   0.04455   0.30535
C          C       0.58701   0.07082   0.29332
C          C       0.59176   0.08534   0.19143
C          C       0.57299   0.07335   0.10221
C          C       0.54991   0.04705   0.11477
C          C       0.62464   0.13126   0.25294
C          C       0.65129   0.15711   0.23960
C          C       0.67187   0.15846   0.16685
C          C       0.69802   0.18219   0.16325
C          C       0.70375   0.20503   0.23071
C          C       0.68296   0.20416   0.30032
C          C       0.65697   0.18022   0.30562
C          C       0.73192   0.22909   0.23385
C          C       0.73767   0.25500   0.19427
C          C       0.75390   0.22651   0.27863
C          C       0.76376   0.27738   0.19933
C          C       0.78070   0.24953   0.28452
C          C       0.78600   0.27551   0.24518
C          C       0.81431   0.29967   0.25065
C          C       0.83693   0.29732   0.21332
C          C       0.86368   0.32001   0.21698
C          C       0.86836   0.34541   0.25889
C          C       0.84583   0.34777   0.29788
C          C       0.81897   0.32504   0.29365
C          C       0.89666   0.36925   0.25661
N          N       0.38429   0.90990   0.20405
N          N       0.53317   0.90804   0.24562
N          N       0.24937   0.80291   0.03785
N          N       0.20488   0.76156   0.05801
N          N       0.10620   0.61968   0.19331
N          N       0.10977   0.49544   0.29308
N          N       0.29618   0.52540   0.40473
N          N       0.25710   0.53195   0.43700
N          N       0.39220   0.49494   0.18496
N          N       0.56947   0.75807   0.32489
N          N       0.57759   0.80464   0.32655
N          N       0.51586   0.61859   0.25932
N          N       0.61769   0.51475   0.31935
N          N       0.71606   0.48774   0.10773
N          N       0.75515   0.48125   0.07747
N          N       0.90002   0.51182   0.24841
N          N       0.49590   0.39208   0.24221
N          N       0.44923   0.25214   0.27435
N          N       0.44542   0.20733   0.28503
N          N       0.50151   0.11110   0.25844
N          N       0.61596   0.11192   0.17680
N          N       0.90268   0.39240   0.30533
N          N       0.76543   0.30010   0.15365
N          N       0.71931   0.26055   0.14533
S          S       0.21719   0.79143   0.48484
S          S       0.28836   0.54329   0.49898
S          S       0.59778   0.78998   0.32943
S          S       0.72433   0.47044   0.01248
S          S       0.42350   0.21970   0.30321
S          S       0.73434   0.29397   0.10427
H          H       0.46113   0.95692   0.03043
H          H       0.46533   0.99075   0.48354
H          H       0.50781   0.97135   0.47001
H          H       0.51307   0.00530   0.43255
H          H       0.44396   0.00301   0.20072
H          H       0.39815   0.96267   0.18336
H          H       0.43070   0.91074   0.28213
H          H       0.47557   0.94992   0.30125
H          H       0.48935   0.95027   0.11561
H          H       0.49820   0.91444   0.11884
H          H       0.56400   0.95740   0.35773
H          H       0.55786   0.99674   0.34679
H          H       0.39854   0.88393   0.15119
H          H       0.55380   0.91399   0.39840
H          H       0.33021   0.88234   0.20087
H          H       0.28452   0.83987   0.19761
H          H       0.32382   0.79256   0.11459
H          H       0.36920   0.83482   0.11751
H          H       0.28839   0.76659   0.27469
H          H       0.24286   0.72441   0.29440
H          H       0.17599   0.73679   0.27847
H          H       0.12953   0.69608   0.29835
H          H       0.15888   0.64549   0.14501
H          H       0.20547   0.68627   0.12740
H          H       0.09748   0.64640   0.28211
H          H       0.06865   0.60669   0.36513
H          H       0.02614   0.56320   0.39182
H          H       0.04241   0.53106   0.08858
H          H       0.08583   0.57541   0.06078
H          H       0.02520   0.46572   0.13592
H          H       0.06943   0.46718   0.15060
H          H       0.09242   0.52338   0.43110
H          H       0.04791   0.52203   0.41797
H          H       0.13556   0.53432   0.35988
H          H       0.13459   0.46754   0.29866
H          H       0.17521   0.46217   0.27881
H          H       0.22841   0.54976   0.32625
H          H       0.18737   0.55502   0.34753
H          H       0.21137   0.47470   0.13695
H          H       0.25093   0.46742   0.10770
H          H       0.27493   0.44624   0.27449
H          H       0.31452   0.43848   0.26303
H          H       0.36743   0.52351   0.16715
H          H       0.32766   0.53124   0.18096
H          H       0.36486   0.45685   0.25411
H          H       0.40522   0.47200   0.35993
H          H       0.44831   0.47134   0.38448
H          H       0.47876   0.51457   0.06879
H          H       0.43531   0.51592   0.04528
H          H       0.53092   0.49586   0.42738
H          H       0.57402   0.49411   0.45587
H          H       0.60570   0.53736   0.14098
H          H       0.56262   0.53802   0.11063
H          H       0.53475   0.55683   0.08522
H          H       0.53362   0.60012   0.09302
H          H       0.49801   0.57883   0.42751
H          H       0.49924   0.53594   0.41923
H          H       0.47657   0.45390   0.41069
H          H       0.47812   0.41091   0.40599
H          H       0.51269   0.43091   0.06940
H          H       0.51063   0.47329   0.07415
H          H       0.51605   0.86046   0.17078
H          H       0.50912   0.81376   0.16938
H          H       0.55991   0.83245   0.46832
H          H       0.56658   0.87948   0.47061
H          H       0.48398   0.77176   0.31251
H          H       0.47570   0.72414   0.31156
H          H       0.48599   0.69464   0.45847
H          H       0.47907   0.64773   0.46344
H          H       0.53478   0.66752   0.18019
H          H       0.54169   0.71448   0.17583
H          H       0.48937   0.61232   0.39395
H          H       0.64545   0.55375   0.25928
H          H       0.64218   0.48586   0.32331
H          H       0.68234   0.47879   0.31285
H          H       0.73632   0.56604   0.26504
H          H       0.69627   0.57315   0.27266
H          H       0.75893   0.54289   0.41434
H          H       0.79797   0.53501   0.39095
H          H       0.78392   0.46391   0.15616
H          H       0.82486   0.45924   0.12991
H          H       0.87601   0.54026   0.27040
H          H       0.83598   0.54629   0.28696
H          H       0.87680   0.47910   0.13979
H          H       0.92180   0.49348   0.08329
H          H       0.96746   0.49696   0.08943
H          H       0.98134   0.53307   0.42227
H          H       0.93620   0.53053   0.41402
H          H       0.96995   0.47602   0.44392
H          H       0.92530   0.43213   0.45948
H          H       0.93837   0.40903   0.12747
H          H       0.98166   0.45251   0.11098
H          H       0.51493   0.39368   0.08875
H          H       0.48235   0.34671   0.34335
H          H       0.47936   0.30178   0.36855
H          H       0.52151   0.31250   0.04992
H          H       0.52474   0.35754   0.02538
H          H       0.54136   0.29126   0.18355
H          H       0.53728   0.24545   0.19343
H          H       0.45637   0.17950   0.11666
H          H       0.45291   0.13414   0.10285
H          H       0.52120   0.16074   0.33537
H          H       0.52471   0.20628   0.34921
H          H       0.46892   0.10206   0.14970
H          H       0.48615   0.07661   0.07516
H          H       0.48354   0.03200   0.06699
H          H       0.51424   0.04361   0.40978
H          H       0.51746   0.08809   0.41525
H          H       0.55970   0.03472   0.38705
H          H       0.60135   0.07984   0.36306
H          H       0.57572   0.08476   0.02485
H          H       0.53407   0.03889   0.05128
H          H       0.61238   0.12850   0.32830
H          H       0.66791   0.14078   0.11579
H          H       0.71393   0.18270   0.10890
H          H       0.68719   0.22177   0.35264
H          H       0.64132   0.17961   0.36190
H          H       0.75018   0.20677   0.31021
H          H       0.79722   0.24714   0.32094
H          H       0.83383   0.27801   0.17930
H          H       0.88077   0.31779   0.18624
H          H       0.84903   0.36728   0.32994
H          H       0.80177   0.32715   0.32401
H          H       0.91248   0.36706   0.21248
C          C       0.49482   0.00510   0.73342
C          C       0.51956   0.00450   0.72476
C          C       0.47381   0.97735   0.99484
C          C       0.46539   0.98030   0.74023
C          C       0.49983   0.98543   0.96640
C          C       0.52350   0.97922   0.72667
C          C       0.44200   0.98314   0.71606
C          C       0.41540   0.96003   0.70678
C          C       0.41123   0.93355   0.72309
C          C       0.43339   0.93068   0.76063
C          C       0.45971   0.95360   0.77000
C          C       0.50758   0.95490   0.66212
C          C       0.51180   0.93260   0.66703
C          C       0.53150   0.93276   0.73866
C          C       0.54826   0.95650   0.80210
C          C       0.54464   0.97950   0.79450
C          C       0.38079   0.88621   0.67068
C          C       0.35302   0.86161   0.66049
C          C       0.54437   0.90093   0.82532
C          C       0.54182   0.87342   0.82098
C          C       0.32885   0.86281   0.68100
C          C       0.30291   0.83871   0.67851
C          C       0.30080   0.81310   0.65599
C          C       0.32495   0.81205   0.63293
C          C       0.35079   0.83613   0.63440
C          C       0.27369   0.78736   0.66323
C          C       0.27074   0.76509   0.72969
C          C       0.25005   0.78438   0.60784
C          C       0.24478   0.74105   0.74121
C          C       0.22137   0.73892   0.68665
C          C       0.19387   0.71429   0.70145
C          C       0.22487   0.76101   0.61917
C          C       0.17227   0.71682   0.74953
C          C       0.14591   0.69367   0.76068
C          C       0.14069   0.66773   0.72269
C          C       0.16244   0.66528   0.67476
C          C       0.18892   0.68839   0.66511
C          C       0.11267   0.64358   0.73616
C          C       0.08007   0.59475   0.70812
C          C       0.06282   0.59088   0.80147
C          C       0.03832   0.56585   0.81694
C          C       0.03060   0.54413   0.73991
C          C       0.04787   0.54791   0.64707
C          C       0.07247   0.57299   0.63167
C          C       0.00514   0.51708   0.75841
C          C       0.00606   0.49337   0.76849
C          C       0.03282   0.49365   0.77683
C          C       0.03923   0.47812   0.70198
C          C       0.06462   0.47904   0.70928
C          C       0.08420   0.49561   0.78982
C          C       0.07792   0.51101   0.86589
C          C       0.05237   0.50996   0.85935
C          C       0.13335   0.51499   0.83067
C          C       0.15797   0.51169   0.82441
C          C       0.15500   0.48560   0.80529
C          C       0.17822   0.48258   0.79354
C          C       0.20499   0.50559   0.80037
C          C       0.20799   0.53167   0.82178
C          C       0.18465   0.53468   0.83384
C          C       0.22947   0.50225   0.78073
C          C       0.25344   0.51551   0.84817
C          C       0.22907   0.48490   0.69292
C          C       0.25169   0.48083   0.67553
C          C       0.27557   0.51177   0.83015
C          C       0.27531   0.49431   0.74452
C          C       0.29865   0.48933   0.72929
C          C       0.29503   0.46308   0.74993
C          C       0.31756   0.45871   0.74352
C          C       0.34392   0.48046   0.71483
C          C       0.34727   0.50650   0.68980
C          C       0.32479   0.51095   0.69796
C          C       0.36785   0.47606   0.71921
C          C       0.41681   0.49320   0.69839
C          C       0.42080   0.48070   0.79424
C          C       0.44544   0.48031   0.80832
C          C       0.46646   0.49236   0.72676
C          C       0.46251   0.50496   0.63135
C          C       0.43798   0.50571   0.61810
C          C       0.49304   0.49287   0.74305
C          C       0.51736   0.51703   0.74961
C          C       0.49264   0.46628   0.74058
C          C       0.51775   0.54362   0.75350
C          C       0.54382   0.51743   0.76831
C          C       0.54736   0.50510   0.86555
C          C       0.57169   0.50416   0.88165
C          C       0.59318   0.51644   0.80271
C          C       0.58970   0.52877   0.70517
C          C       0.56515   0.52919   0.68795
C          C       0.52723   0.56177   0.66112
C          C       0.52624   0.58621   0.66462
C          C       0.51554   0.59275   0.75947
C          C       0.50593   0.57440   0.85190
C          C       0.50697   0.55000   0.84847
C          C       0.48372   0.44864   0.83465
C          C       0.48501   0.42438   0.83296
C          C       0.49537   0.41745   0.73828
C          C       0.50451   0.43531   0.64421
C          C       0.50316   0.45954   0.64587
C          C       0.52585   0.85460   0.73578
C          C       0.52173   0.82791   0.73537
C          C       0.53379   0.81960   0.81925
C          C       0.55036   0.83854   0.90302
C          C       0.55421   0.86525   0.90427
C          C       0.52873   0.79105   0.81940
C          C       0.50151   0.76841   0.81481
C          C       0.55063   0.78556   0.82270
C          C       0.49678   0.74126   0.81471
C          C       0.54605   0.75922   0.82095
C          C       0.51919   0.73634   0.81701
C          C       0.51435   0.70789   0.81693
C          C       0.49644   0.68871   0.89677
C          C       0.49257   0.66204   0.89970
C          C       0.50637   0.65408   0.82213
C          C       0.52390   0.67319   0.74082
C          C       0.52790   0.69990   0.73840
C          C       0.50286   0.62616   0.82922
C          C       0.64230   0.53421   0.79103
C          C       0.66629   0.53001   0.79807
C          C       0.66269   0.50348   0.81161
C          C       0.68542   0.49943   0.80530
C          C       0.71205   0.52188   0.78739
C          C       0.71584   0.54852   0.77889
C          C       0.69306   0.55253   0.78311
C          C       0.73572   0.51737   0.77249
C          C       0.75872   0.53011   0.84490
C          C       0.73615   0.50070   0.68505
C          C       0.78120   0.52570   0.83028
C          C       0.75832   0.49692   0.66850
C          C       0.78169   0.50915   0.74039
C          C       0.80636   0.50560   0.72353
C          C       0.80391   0.48112   0.67865
C          C       0.82729   0.47821   0.66489
C          C       0.85344   0.49926   0.69931
C          C       0.85598   0.52362   0.74406
C          C       0.83289   0.52689   0.75462
C          C       0.87793   0.49576   0.69044
C          C       0.92567   0.51173   0.74924
C          C       0.93459   0.50210   0.65753
C          C       0.96076   0.50444   0.66004
C          C       0.97816   0.51618   0.75409
C          C       0.96892   0.52512   0.84651
C          C       0.94302   0.52323   0.84301
C          C       0.98007   0.46652   0.77995
C          C       0.96349   0.46086   0.87695
C          C       0.93814   0.43625   0.88505
C          C       0.92920   0.41695   0.79720
C          C       0.94548   0.42294   0.69896
C          C       0.97049   0.44766   0.69012
C          C       0.50560   0.38243   0.66577
C          C       0.50389   0.35551   0.68269
C          C       0.49112   0.33946   0.77931
C          C       0.48934   0.31383   0.79346
C          C       0.50034   0.30386   0.71130
C          C       0.51319   0.31997   0.61498
C          C       0.51491   0.34556   0.60069
C          C       0.49829   0.27661   0.72468
C          C       0.47322   0.25290   0.75310
C          C       0.52153   0.27351   0.70481
C          C       0.47101   0.22750   0.75846
C          C       0.51929   0.24741   0.71147
C          C       0.49371   0.22387   0.73684
C          C       0.49084   0.19619   0.73370
C          C       0.47051   0.17551   0.66520
C          C       0.46862   0.14976   0.65695
C          C       0.48701   0.14427   0.71705
C          C       0.50706   0.16478   0.78731
C          C       0.50906   0.19065   0.79507
C          C       0.48503   0.11718   0.70396
C          C       0.50082   0.08518   0.74852
C          C       0.49179   0.06926   0.64924
C          C       0.49025   0.04365   0.64457
C          C       0.49693   0.03301   0.73945
C          C       0.50732   0.04980   0.83654
C          C       0.50951   0.07568   0.83990
C          C       0.54569   0.03181   0.71384
C          C       0.56385   0.04455   0.80536
C          C       0.58701   0.07082   0.79332
C          C       0.59176   0.08534   0.69142
C          C       0.57299   0.07335   0.60220
C          C       0.54991   0.04705   0.61477
C          C       0.62464   0.13126   0.75294
C          C       0.65129   0.15711   0.73960
C          C       0.67187   0.15846   0.66685
C          C       0.69802   0.18219   0.66324
C          C       0.70375   0.20503   0.73071
C          C       0.68296   0.20416   0.80032
C          C       0.65697   0.18022   0.80563
C          C       0.73192   0.22909   0.73385
C          C       0.73767   0.25500   0.69427
C          C       0.75390   0.22651   0.77863
C          C       0.76376   0.27738   0.69933
C          C       0.78070   0.24953   0.78452
C          C       0.78600   0.27551   0.74518
C          C       0.81431   0.29967   0.75065
C          C       0.83693   0.29732   0.71332
C          C       0.86368   0.32001   0.71698
C          C       0.86836   0.34541   0.75889
C          C       0.84583   0.34777   0.79788
C          C       0.81897   0.32504   0.79365
C          C       0.89666   0.36925   0.75660
N          N       0.38429   0.90990   0.70404
N          N       0.53317   0.90804   0.74562
N          N       0.24937   0.80291   0.53785
N          N       0.20488   0.76156   0.55802
N          N       0.10620   0.61968   0.69331
N          N       0.10977   0.49544   0.79309
N          N       0.29618   0.52540   0.90473
N          N       0.25710   0.53195   0.93700
N          N       0.39220   0.49494   0.68495
N          N       0.56947   0.75807   0.82489
N          N       0.57759   0.80464   0.82656
N          N       0.51586   0.61859   0.75932
N          N       0.61769   0.51475   0.81936
N          N       0.71606   0.48774   0.60773
N          N       0.75515   0.48125   0.57747
N          N       0.90002   0.51182   0.74841
N          N       0.49590   0.39208   0.74221
N          N       0.44923   0.25214   0.77435
N          N       0.44542   0.20733   0.78503
N          N       0.50151   0.11110   0.75843
N          N       0.61596   0.11192   0.67679
N          N       0.90268   0.39240   0.80533
N          N       0.76543   0.30010   0.65365
N          N       0.71931   0.26055   0.64533
S          S       0.21719   0.79143   0.98484
S          S       0.28836   0.54329   0.99898
S          S       0.59778   0.78998   0.82943
S          S       0.72433   0.47044   0.51248
S          S       0.42350   0.21970   0.80320
S          S       0.73434   0.29397   0.60427
H          H       0.46113   0.95692   0.53043
H          H       0.46533   0.99075   0.98354
H          H       0.50781   0.97135   0.97001
H          H       0.51307   0.00530   0.93255
H          H       0.44396   0.00301   0.70072
H          H       0.39815   0.96267   0.68336
H          H       0.43070   0.91074   0.78213
H          H       0.47557   0.94992   0.80125
H          H       0.48935   0.95027   0.61561
H          H       0.49820   0.91444   0.61884
H          H       0.56400   0.95740   0.85773
H          H       0.55786   0.99674   0.84679
H          H       0.39854   0.88393   0.65119
H          H       0.55380   0.91399   0.89840
H          H       0.33021   0.88234   0.70087
H          H       0.28452   0.83987   0.69761
H          H       0.32382   0.79256   0.61459
H          H       0.36920   0.83482   0.61752
H          H       0.28839   0.76659   0.77469
H          H       0.24286   0.72441   0.79440
H          H       0.17599   0.73679   0.77847
H          H       0.12953   0.69608   0.79835
H          H       0.15888   0.64549   0.64501
H          H       0.20547   0.68627   0.62740
H          H       0.09748   0.64640   0.78211
H          H       0.06865   0.60669   0.86513
H          H       0.02614   0.56320   0.89182
H          H       0.04241   0.53106   0.58858
H          H       0.08583   0.57541   0.56078
H          H       0.02520   0.46572   0.63592
H          H       0.06943   0.46718   0.65060
H          H       0.09242   0.52338   0.93110
H          H       0.04791   0.52203   0.91797
H          H       0.13556   0.53432   0.85988
H          H       0.13459   0.46754   0.79866
H          H       0.17521   0.46217   0.77881
H          H       0.22841   0.54976   0.82625
H          H       0.18737   0.55502   0.84753
H          H       0.21137   0.47470   0.63695
H          H       0.25093   0.46742   0.60770
H          H       0.27493   0.44624   0.77449
H          H       0.31452   0.43848   0.76303
H          H       0.36743   0.52351   0.66715
H          H       0.32766   0.53124   0.68096
H          H       0.36486   0.45685   0.75411
H          H       0.40522   0.47200   0.85993
H          H       0.44831   0.47134   0.88448
H          H       0.47876   0.51457   0.56879
H          H       0.43531   0.51592   0.54529
H          H       0.53092   0.49586   0.92738
H          H       0.57402   0.49411   0.95587
H          H       0.60570   0.53736   0.64099
H          H       0.56262   0.53802   0.61064
H          H       0.53475   0.55683   0.58522
H          H       0.53362   0.60012   0.59302
H          H       0.49801   0.57883   0.92751
H          H       0.49924   0.53594   0.91923
H          H       0.47657   0.45390   0.91069
H          H       0.47812   0.41091   0.90599
H          H       0.51269   0.43091   0.56941
H          H       0.51063   0.47329   0.57415
H          H       0.51605   0.86046   0.67079
H          H       0.50912   0.81376   0.66938
H          H       0.55991   0.83245   0.96832
H          H       0.56658   0.87948   0.97061
H          H       0.48398   0.77176   0.81252
H          H       0.47570   0.72414   0.81156
H          H       0.48599   0.69464   0.95847
H          H       0.47907   0.64773   0.96345
H          H       0.53478   0.66752   0.68019
H          H       0.54169   0.71448   0.67583
H          H       0.48937   0.61232   0.89395
H          H       0.64545   0.55375   0.75928
H          H       0.64218   0.48586   0.82331
H          H       0.68234   0.47879   0.81285
H          H       0.73632   0.56604   0.76504
H          H       0.69627   0.57315   0.77266
H          H       0.75893   0.54289   0.91434
H          H       0.79797   0.53501   0.89095
H          H       0.78392   0.46391   0.65616
H          H       0.82486   0.45924   0.62991
H          H       0.87601   0.54026   0.77040
H          H       0.83598   0.54629   0.78696
H          H       0.87680   0.47910   0.63979
H          H       0.92180   0.49348   0.58329
H          H       0.96746   0.49696   0.58942
H          H       0.98134   0.53307   0.92227
H          H       0.93620   0.53053   0.91402
H          H       0.96995   0.47602   0.94392
H          H       0.92530   0.43213   0.95948
H          H       0.93837   0.40903   0.62747
H          H       0.98166   0.45251   0.61098
H          H       0.51493   0.39368   0.58875
H          H       0.48235   0.34671   0.84335
H          H       0.47936   0.30178   0.86855
H          H       0.52151   0.31250   0.54991
H          H       0.52474   0.35754   0.52538
H          H       0.54136   0.29126   0.68355
H          H       0.53728   0.24545   0.69343
H          H       0.45637   0.17950   0.61666
H          H       0.45291   0.13414   0.60285
H          H       0.52120   0.16074   0.83537
H          H       0.52471   0.20628   0.84921
H          H       0.46892   0.10206   0.64970
H          H       0.48615   0.07661   0.57516
H          H       0.48354   0.03200   0.56699
H          H       0.51424   0.04361   0.90978
H          H       0.51746   0.08809   0.91525
H          H       0.55970   0.03472   0.88705
H          H       0.60135   0.07984   0.86306
H          H       0.57572   0.08476   0.52485
H          H       0.53407   0.03889   0.55128
H          H       0.61238   0.12850   0.82830
H          H       0.66791   0.14078   0.61579
H          H       0.71393   0.18270   0.60890
H          H       0.68719   0.22177   0.85264
H          H       0.64132   0.17961   0.86190
H          H       0.75018   0.20677   0.81021
H          H       0.79722   0.24714   0.82095
H          H       0.83383   0.27801   0.67931
H          H       0.88077   0.31779   0.68624
H          H       0.84903   0.36728   0.82994
H          H       0.80177   0.32715   0.82401
H          H       0.91248   0.36706   0.71248
