data_crystal

_cell_length_a    58.45160
_cell_length_b    59.01750
_cell_length_c    9.48584
_cell_angle_alpha 90.00000
_cell_angle_beta  90.00000
_cell_angle_gamma 120.00000

_space_group_name_Hall 'P 1'
_space_group_name_H-M_alt 'P 1'

loop_
_symmetry_equiv_pos_as_xyz
 'x,y,z'

loop_
_atom_site_label
_atom_site_type_symbol
_atom_site_fract_x
_atom_site_fract_y
_atom_site_fract_z
C          C       0.50622   0.97053   0.22685
C          C       0.48355   0.94641   0.19135
C          C       0.48422   0.92315   0.17753
C          C       0.50805   0.92314   0.19240
C          C       0.53108   0.94692   0.21194
C          C       0.53038   0.97012   0.22610
C          C       0.45758   0.97472   0.30008
C          C       0.43837   0.97057   0.19845
C          C       0.41352   0.94807   0.20308
C          C       0.40780   0.92867   0.30545
C          C       0.42743   0.93229   0.40214
C          C       0.45196   0.95531   0.40026
C          C       0.49107   0.87578   0.17622
C          C       0.49683   0.85403   0.17242
C          C       0.47634   0.82836   0.14760
C          C       0.48159   0.80768   0.14096
C          C       0.50739   0.81222   0.16106
C          C       0.52779   0.83785   0.18823
C          C       0.52259   0.85856   0.19315
C          C       0.51297   0.79036   0.15047
C          C       0.50666   0.75228   0.08474
C          C       0.52903   0.76134   0.15678
C          C       0.52228   0.72291   0.09385
C          C       0.52703   0.70040   0.08858
C          C       0.51003   0.67755   0.01293
C          C       0.51363   0.65584   0.01618
C          C       0.53431   0.65651   0.09498
C          C       0.55187   0.67957   0.16623
C          C       0.54825   0.70129   0.16335
C          C       0.53675   0.63290   0.11143
C          C       0.51532   0.58535   0.10802
C          C       0.49055   0.56356   0.12695
C          C       0.48790   0.53951   0.16393
C          C       0.51003   0.53626   0.18868
C          C       0.53464   0.55777   0.14638
C          C       0.53749   0.58218   0.11188
C          C       0.50843   0.51099   0.24659
C          C       0.48496   0.48726   0.24306
C          C       0.45875   0.48473   0.27446
C          C       0.45585   0.49905   0.38421
C          C       0.43187   0.49852   0.40465
C          C       0.41000   0.48271   0.31854
C          C       0.41249   0.46733   0.21443
C          C       0.43656   0.46832   0.19193
C          C       0.36177   0.89966   0.24132
C          C       0.33782   0.87370   0.24753
C          C       0.31632   0.86862   0.16127
C          C       0.29367   0.84394   0.16087
C          C       0.29203   0.82379   0.24697
C          C       0.31355   0.82904   0.33488
C          C       0.33626   0.85379   0.33505
C          C       0.26815   0.79741   0.24142
C          C       0.22929   0.76728   0.16951
C          C       0.23554   0.75363   0.25672
C          C       0.19707   0.72329   0.18111
C          C       0.17373   0.69660   0.17044
C          C       0.15315   0.69074   0.07402
C          C       0.13117   0.66545   0.06691
C          C       0.12936   0.64574   0.15662
C          C       0.14985   0.65152   0.25217
C          C       0.17183   0.67661   0.25877
C          C       0.10641   0.61909   0.15501
C          C       0.06467   0.58547   0.06991
C          C       0.03921   0.58033   0.03738
C          C       0.01733   0.55588   0.07179
C          C       0.02046   0.53719   0.15018
C          C       0.04627   0.54103   0.14893
C          C       0.06792   0.56464   0.11175
C          C       0.99700   0.51453   0.22684
C          C       0.99449   0.48987   0.23533
C          C       0.37861   0.49531   0.41251
C          C       0.35228   0.49294   0.39872
C          C       0.34545   0.50837   0.48172
C          C       0.32075   0.50661   0.46557
C          C       0.30241   0.48929   0.36642
C          C       0.30935   0.47379   0.28442
C          C       0.33393   0.47560   0.30030
C          C       0.27629   0.48747   0.34769
C          C       0.24520   0.49709   0.38057
C          C       0.23399   0.47816   0.28530
C          C       0.20288   0.48780   0.31583
C          C       0.17673   0.48566   0.29233
C          C       0.16832   0.50016   0.37308
C          C       0.14335   0.49740   0.35085
C          C       0.12650   0.48033   0.24632
C          C       0.13497   0.46619   0.16454
C          C       0.15973   0.46867   0.18766
C          C       0.10037   0.47753   0.21963
C          C       0.06418   0.48381   0.29790
C          C       0.05824   0.49865   0.38967
C          C       0.03500   0.49955   0.37339
C          C       0.01784   0.48664   0.26051
C          C       0.02273   0.47017   0.17454
C          C       0.04563   0.46860   0.19331
C          C       0.97647   0.51991   0.29707
C          C       0.96843   0.46433   0.23113
C          C       0.97801   0.54469   0.29494
C          C       0.95666   0.54771   0.33544
C          C       0.93375   0.52640   0.39048
C          C       0.93406   0.50344   0.41874
C          C       0.95574   0.50091   0.37958
C          C       0.94594   0.46187   0.16222
C          C       0.92260   0.43779   0.15314
C          C       0.92086   0.41558   0.21763
C          C       0.94229   0.41813   0.29497
C          C       0.96575   0.44205   0.30178
C          C       0.87784   0.38250   0.12643
C          C       0.85460   0.35605   0.14106
C          C       0.83243   0.34811   0.05440
C          C       0.81020   0.32317   0.06993
C          C       0.80986   0.30569   0.17203
C          C       0.83224   0.31371   0.25751
C          C       0.85430   0.33858   0.24251
C          C       0.78637   0.27925   0.18923
C          C       0.74649   0.24706   0.15157
C          C       0.75497   0.23655   0.24727
C          C       0.71534   0.20411   0.20860
C          C       0.69235   0.17746   0.22666
C          C       0.66934   0.16885   0.14554
C          C       0.64773   0.14375   0.16462
C          C       0.64873   0.12680   0.26531
C          C       0.67165   0.13530   0.34608
C          C       0.69328   0.16036   0.32688
C          C       0.62598   0.10047   0.28908
C          C       0.58090   0.06720   0.22508
C          C       0.56042   0.06182   0.13101
C          C       0.53650   0.03830   0.13960
C          C       0.53228   0.02014   0.24506
C          C       0.55241   0.02594   0.34363
C          C       0.57682   0.04889   0.33155
C          C       0.50607   0.99621   0.25850
C          C       0.48408   0.99851   0.29464
C          C       0.48404   0.02427   0.32677
C          C       0.50698   0.04875   0.35328
C          C       0.50641   0.07207   0.36062
C          C       0.48250   0.07188   0.35013
C          C       0.45919   0.04791   0.34519
C          C       0.45982   0.02455   0.33572
C          C       0.90615   0.54681   0.40535
C          C       0.87938   0.54334   0.41724
C          C       0.87602   0.56527   0.41319
C          C       0.85066   0.56218   0.41548
C          C       0.82825   0.53707   0.41874
C          C       0.83163   0.51514   0.42435
C          C       0.85697   0.51825   0.42497
C          C       0.80144   0.53368   0.41151
C          C       0.77029   0.54312   0.44394
C          C       0.75755   0.52108   0.37034
C          C       0.72627   0.53055   0.39947
C          C       0.69942   0.52708   0.38320
C          C       0.69112   0.54180   0.46293
C          C       0.66543   0.53768   0.44794
C          C       0.64775   0.51899   0.35196
C          C       0.65615   0.50457   0.27142
C          C       0.68163   0.50851   0.28702
C          C       0.62047   0.51384   0.33330
C          C       0.58450   0.52122   0.38652
C          C       0.57864   0.54121   0.40449
C          C       0.55344   0.53703   0.37028
C          C       0.53376   0.51316   0.31010
C          C       0.53892   0.49219   0.32026
C          C       0.56386   0.49621   0.35368
C          C       0.48338   0.46173   0.21144
C          C       0.46702   0.43963   0.29357
C          C       0.46579   0.41577   0.26886
C          C       0.48084   0.41329   0.16042
C          C       0.49693   0.43518   0.07712
C          C       0.49772   0.45904   0.10006
C          C       0.46410   0.36667   0.18691
C          C       0.46782   0.34376   0.17884
C          C       0.45061   0.32129   0.25535
C          C       0.45435   0.29974   0.25887
C          C       0.47538   0.30006   0.18521
C          C       0.49228   0.32238   0.10515
C          C       0.48858   0.34411   0.10243
C          C       0.47963   0.27730   0.19609
C          C       0.47252   0.23946   0.27275
C          C       0.49307   0.24618   0.18851
C          C       0.48577   0.20824   0.26499
C          C       0.48958   0.18519   0.27677
C          C       0.47273   0.16352   0.36094
C          C       0.47591   0.14156   0.36764
C          C       0.49607   0.14082   0.29101
C          C       0.51315   0.16252   0.20859
C          C       0.50991   0.18445   0.20120
C          C       0.49924   0.11748   0.29344
N          N       0.38301   0.90458   0.31019
N          N       0.51019   0.89989   0.18591
N          N       0.49658   0.76815   0.07867
N          N       0.53874   0.74516   0.16549
N          N       0.51681   0.60999   0.08206
N          N       0.38532   0.48242   0.32686
N          N       0.24739   0.79252   0.15706
N          N       0.21768   0.72829   0.26704
N          N       0.08668   0.61187   0.06822
N          N       0.26959   0.50322   0.41974
N          N       0.20977   0.47212   0.24503
N          N       0.08911   0.48463   0.31363
N          N       0.89723   0.39045   0.21538
N          N       0.90964   0.52676   0.41417
N          N       0.76381   0.27162   0.11469
N          N       0.73787   0.21196   0.28321
N          N       0.60488   0.09185   0.21206
N          N       0.48120   0.09555   0.34829
N          N       0.79574   0.55135   0.46939
N          N       0.73234   0.51317   0.34174
N          N       0.61121   0.52652   0.40316
N          N       0.48171   0.38956   0.13975
N          N       0.46408   0.25663   0.28054
N          N       0.50141   0.22888   0.18044
S          S       0.54070   0.79152   0.22671
S          S       0.49482   0.72203   0.01602
S          S       0.26529   0.77085   0.33637
S          S       0.19983   0.74997   0.08747
S          S       0.25257   0.46529   0.23138
S          S       0.22643   0.50997   0.43329
S          S       0.78606   0.25615   0.30495
S          S       0.71537   0.22713   0.09318
S          S       0.77574   0.50730   0.32420
S          S       0.75180   0.55674   0.48971
S          S       0.50469   0.27542   0.10661
S          S       0.46080   0.21028   0.35451
H          H       0.46478   0.94447   0.16998
H          H       0.46599   0.90546   0.15390
H          H       0.54980   0.94739   0.21676
H          H       0.54942   0.98740   0.23514
H          H       0.44269   0.98493   0.11630
H          H       0.39942   0.94576   0.12280
H          H       0.42378   0.91710   0.47775
H          H       0.46778   0.95726   0.46570
H          H       0.47070   0.87110   0.17137
H          H       0.45630   0.82437   0.13212
H          H       0.46549   0.78804   0.12076
H          H       0.54787   0.84192   0.20303
H          H       0.53870   0.87819   0.21283
H          H       0.49364   0.67627   0.45302
H          H       0.50003   0.63832   0.45893
H          H       0.56794   0.68052   0.22781
H          H       0.56174   0.71865   0.22215
H          H       0.55415   0.63470   0.16270
H          H       0.47311   0.56535   0.11373
H          H       0.46805   0.52376   0.16260
H          H       0.55209   0.55595   0.13929
H          H       0.55686   0.59828   0.08571
H          H       0.47277   0.51218   0.44544
H          H       0.43077   0.51067   0.48607
H          H       0.39584   0.45518   0.14713
H          H       0.43807   0.45699   0.10633
H          H       0.36114   0.91433   0.17617
H          H       0.31723   0.88369   0.09225
H          H       0.27750   0.84048   0.09144
H          H       0.31295   0.81398   0.40267
H          H       0.35269   0.85738   0.40271
H          H       0.15402   0.70561   0.00369
H          H       0.11552   0.66109   0.49179
H          H       0.14868   0.63649   0.32271
H          H       0.18723   0.68041   0.33450
H          H       0.10601   0.60546   0.23335
H          H       0.03639   0.59549   0.49211
H          H       0.99789   0.55244   0.04710
H          H       0.05085   0.52600   0.16126
H          H       0.08716   0.56637   0.11751
H          H       0.39206   0.50822   0.49201
H          H       0.35924   0.52184   0.05868
H          H       0.31591   0.51875   0.03056
H          H       0.29587   0.46035   0.20638
H          H       0.33871   0.46352   0.23451
H          H       0.18086   0.51345   0.45450
H          H       0.13710   0.50870   0.41386
H          H       0.12230   0.45313   0.08255
H          H       0.16565   0.45736   0.12288
H          H       0.09126   0.47010   0.11784
H          H       0.07210   0.51072   0.47057
H          H       0.03221   0.51292   0.43785
H          H       0.00945   0.45960   0.08875
H          H       0.04906   0.45637   0.12238
H          H       0.99602   0.56240   0.27016
H          H       0.95843   0.56667   0.32281
H          H       0.91735   0.48736   0.47072
H          H       0.95589   0.48365   0.41221
H          H       0.94554   0.47881   0.12468
H          H       0.90586   0.43699   0.10040
H          H       0.94078   0.40141   0.35004
H          H       0.98173   0.44306   0.36419
H          H       0.87860   0.39486   0.03999
H          H       0.83240   0.36123   0.47443
H          H       0.79333   0.31741   0.00139
H          H       0.83274   0.30086   0.33741
H          H       0.87119   0.34425   0.31075
H          H       0.66804   0.18148   0.06698
H          H       0.63017   0.13759   0.10121
H          H       0.67274   0.12261   0.42518
H          H       0.71072   0.16650   0.39142
H          H       0.62735   0.08884   0.37316
H          H       0.56291   0.07613   0.05196
H          H       0.52010   0.03499   0.07476
H          H       0.54912   0.01253   0.42961
H          H       0.59183   0.05235   0.40832
H          H       0.52590   0.05098   0.37306
H          H       0.52470   0.09023   0.37697
H          H       0.44046   0.04746   0.34531
H          H       0.44081   0.00700   0.33582
H          H       0.92246   0.56618   0.38390
H          H       0.89306   0.58476   0.40602
H          H       0.84842   0.57932   0.41008
H          H       0.81459   0.49559   0.42791
H          H       0.85913   0.50105   0.42831
H          H       0.70436   0.55620   0.03824
H          H       0.65923   0.54889   0.01169
H          H       0.64291   0.49015   0.19609
H          H       0.68750   0.49703   0.22312
H          H       0.60826   0.49935   0.25536
H          H       0.59387   0.56022   0.44033
H          H       0.54992   0.55313   0.38607
H          H       0.52425   0.47213   0.31277
H          H       0.56687   0.47956   0.35547
H          H       0.45581   0.44110   0.38053
H          H       0.45400   0.39984   0.33997
H          H       0.50910   0.43375   0.49547
H          H       0.51108   0.47602   0.03956
H          H       0.44656   0.36402   0.23999
H          H       0.43452   0.32064   0.31547
H          H       0.44092   0.28286   0.32105
H          H       0.50856   0.32318   0.04638
H          H       0.50203   0.36128   0.04213
H          H       0.45688   0.16339   0.42069
H          H       0.46255   0.12503   0.43217
H          H       0.52876   0.16232   0.14792
H          H       0.52315   0.20079   0.13509
H          H       0.51614   0.11847   0.24036
C          C       0.50622   0.97053   0.72686
C          C       0.48355   0.94641   0.69135
C          C       0.48422   0.92315   0.67753
C          C       0.50805   0.92314   0.69239
C          C       0.53108   0.94692   0.71194
C          C       0.53038   0.97012   0.72611
C          C       0.45758   0.97472   0.80008
C          C       0.43837   0.97057   0.69845
C          C       0.41352   0.94807   0.70308
C          C       0.40780   0.92867   0.80545
C          C       0.42743   0.93229   0.90215
C          C       0.45196   0.95531   0.90026
C          C       0.49107   0.87578   0.67622
C          C       0.49683   0.85403   0.67243
C          C       0.47634   0.82836   0.64760
C          C       0.48159   0.80768   0.64096
C          C       0.50739   0.81222   0.66106
C          C       0.52779   0.83785   0.68823
C          C       0.52259   0.85856   0.69315
C          C       0.51297   0.79036   0.65048
C          C       0.50666   0.75228   0.58474
C          C       0.52903   0.76134   0.65678
C          C       0.52228   0.72291   0.59385
C          C       0.52703   0.70040   0.58859
C          C       0.51003   0.67755   0.51292
C          C       0.51363   0.65584   0.51618
C          C       0.53431   0.65651   0.59498
C          C       0.55187   0.67957   0.66623
C          C       0.54825   0.70129   0.66335
C          C       0.53675   0.63290   0.61143
C          C       0.51532   0.58535   0.60802
C          C       0.49055   0.56356   0.62694
C          C       0.48790   0.53951   0.66394
C          C       0.51003   0.53626   0.68868
C          C       0.53464   0.55777   0.64638
C          C       0.53749   0.58218   0.61188
C          C       0.50843   0.51099   0.74659
C          C       0.48496   0.48726   0.74306
C          C       0.45875   0.48473   0.77446
C          C       0.45585   0.49905   0.88421
C          C       0.43187   0.49852   0.90465
C          C       0.41000   0.48271   0.81854
C          C       0.41249   0.46733   0.71443
C          C       0.43656   0.46832   0.69193
C          C       0.36177   0.89966   0.74132
C          C       0.33782   0.87370   0.74753
C          C       0.31632   0.86862   0.66127
C          C       0.29367   0.84394   0.66087
C          C       0.29203   0.82379   0.74697
C          C       0.31355   0.82904   0.83488
C          C       0.33626   0.85379   0.83505
C          C       0.26815   0.79741   0.74142
C          C       0.22929   0.76728   0.66951
C          C       0.23554   0.75363   0.75672
C          C       0.19707   0.72329   0.68112
C          C       0.17373   0.69660   0.67044
C          C       0.15315   0.69074   0.57402
C          C       0.13117   0.66545   0.56690
C          C       0.12936   0.64574   0.65662
C          C       0.14985   0.65152   0.75217
C          C       0.17183   0.67661   0.75877
C          C       0.10641   0.61909   0.65500
C          C       0.06467   0.58547   0.56991
C          C       0.03921   0.58033   0.53738
C          C       0.01733   0.55588   0.57179
C          C       0.02046   0.53719   0.65018
C          C       0.04627   0.54103   0.64893
C          C       0.06792   0.56464   0.61175
C          C       0.99700   0.51453   0.72684
C          C       0.99449   0.48987   0.73533
C          C       0.37861   0.49531   0.91251
C          C       0.35228   0.49294   0.89873
C          C       0.34545   0.50837   0.98172
C          C       0.32075   0.50661   0.96557
C          C       0.30241   0.48929   0.86642
C          C       0.30935   0.47379   0.78442
C          C       0.33393   0.47560   0.80030
C          C       0.27629   0.48747   0.84769
C          C       0.24520   0.49709   0.88057
C          C       0.23399   0.47816   0.78530
C          C       0.20288   0.48780   0.81583
C          C       0.17673   0.48566   0.79233
C          C       0.16832   0.50016   0.87308
C          C       0.14335   0.49740   0.85084
C          C       0.12650   0.48033   0.74633
C          C       0.13497   0.46619   0.66454
C          C       0.15973   0.46867   0.68766
C          C       0.10037   0.47753   0.71963
C          C       0.06418   0.48381   0.79790
C          C       0.05824   0.49865   0.88967
C          C       0.03500   0.49955   0.87339
C          C       0.01784   0.48664   0.76051
C          C       0.02273   0.47017   0.67454
C          C       0.04563   0.46860   0.69331
C          C       0.97647   0.51991   0.79707
C          C       0.96843   0.46433   0.73113
C          C       0.97801   0.54469   0.79494
C          C       0.95666   0.54771   0.83544
C          C       0.93375   0.52640   0.89048
C          C       0.93406   0.50344   0.91874
C          C       0.95574   0.50091   0.87958
C          C       0.94594   0.46187   0.66222
C          C       0.92260   0.43779   0.65314
C          C       0.92086   0.41558   0.71763
C          C       0.94229   0.41813   0.79497
C          C       0.96575   0.44205   0.80178
C          C       0.87784   0.38250   0.62643
C          C       0.85460   0.35605   0.64106
C          C       0.83243   0.34811   0.55440
C          C       0.81020   0.32317   0.56993
C          C       0.80986   0.30569   0.67203
C          C       0.83224   0.31371   0.75751
C          C       0.85430   0.33858   0.74252
C          C       0.78637   0.27925   0.68922
C          C       0.74649   0.24706   0.65158
C          C       0.75497   0.23655   0.74728
C          C       0.71534   0.20411   0.70860
C          C       0.69235   0.17746   0.72666
C          C       0.66934   0.16885   0.64554
C          C       0.64773   0.14375   0.66461
C          C       0.64873   0.12680   0.76531
C          C       0.67165   0.13530   0.84608
C          C       0.69328   0.16036   0.82688
C          C       0.62598   0.10047   0.78909
C          C       0.58090   0.06720   0.72508
C          C       0.56042   0.06182   0.63100
C          C       0.53650   0.03830   0.63960
C          C       0.53228   0.02014   0.74506
C          C       0.55241   0.02594   0.84363
C          C       0.57682   0.04889   0.83156
C          C       0.50607   0.99621   0.75850
C          C       0.48408   0.99851   0.79465
C          C       0.48404   0.02427   0.82677
C          C       0.50698   0.04875   0.85328
C          C       0.50641   0.07207   0.86062
C          C       0.48250   0.07188   0.85013
C          C       0.45919   0.04791   0.84520
C          C       0.45982   0.02455   0.83573
C          C       0.90615   0.54681   0.90535
C          C       0.87938   0.54334   0.91724
C          C       0.87602   0.56527   0.91318
C          C       0.85066   0.56218   0.91548
C          C       0.82825   0.53707   0.91874
C          C       0.83163   0.51514   0.92435
C          C       0.85697   0.51825   0.92497
C          C       0.80144   0.53368   0.91151
C          C       0.77029   0.54312   0.94395
C          C       0.75755   0.52108   0.87034
C          C       0.72627   0.53055   0.89947
C          C       0.69942   0.52708   0.88320
C          C       0.69112   0.54180   0.96293
C          C       0.66543   0.53768   0.94794
C          C       0.64775   0.51899   0.85197
C          C       0.65615   0.50457   0.77142
C          C       0.68163   0.50851   0.78702
C          C       0.62047   0.51384   0.83330
C          C       0.58450   0.52122   0.88652
C          C       0.57864   0.54121   0.90449
C          C       0.55344   0.53703   0.87028
C          C       0.53376   0.51316   0.81010
C          C       0.53892   0.49219   0.82025
C          C       0.56386   0.49621   0.85368
C          C       0.48338   0.46173   0.71144
C          C       0.46702   0.43963   0.79357
C          C       0.46579   0.41577   0.76886
C          C       0.48084   0.41329   0.66041
C          C       0.49693   0.43518   0.57712
C          C       0.49772   0.45904   0.60006
C          C       0.46410   0.36667   0.68691
C          C       0.46782   0.34376   0.67884
C          C       0.45061   0.32129   0.75535
C          C       0.45435   0.29974   0.75887
C          C       0.47538   0.30006   0.68521
C          C       0.49228   0.32238   0.60515
C          C       0.48858   0.34411   0.60242
C          C       0.47963   0.27730   0.69609
C          C       0.47252   0.23946   0.77275
C          C       0.49307   0.24618   0.68850
C          C       0.48577   0.20824   0.76499
C          C       0.48958   0.18519   0.77677
C          C       0.47273   0.16352   0.86094
C          C       0.47591   0.14156   0.86764
C          C       0.49607   0.14082   0.79100
C          C       0.51315   0.16252   0.70859
C          C       0.50991   0.18445   0.70120
C          C       0.49924   0.11748   0.79344
N          N       0.38301   0.90458   0.81019
N          N       0.51019   0.89989   0.68591
N          N       0.49658   0.76815   0.57868
N          N       0.53874   0.74516   0.66549
N          N       0.51681   0.60999   0.58206
N          N       0.38532   0.48242   0.82686
N          N       0.24739   0.79252   0.65706
N          N       0.21768   0.72829   0.76704
N          N       0.08668   0.61187   0.56822
N          N       0.26959   0.50322   0.91974
N          N       0.20977   0.47212   0.74504
N          N       0.08911   0.48463   0.81363
N          N       0.89723   0.39045   0.71538
N          N       0.90964   0.52676   0.91417
N          N       0.76381   0.27162   0.61469
N          N       0.73787   0.21196   0.78321
N          N       0.60488   0.09185   0.71206
N          N       0.48120   0.09555   0.84829
N          N       0.79574   0.55135   0.96939
N          N       0.73234   0.51317   0.84174
N          N       0.61121   0.52652   0.90316
N          N       0.48171   0.38956   0.63975
N          N       0.46408   0.25663   0.78054
N          N       0.50141   0.22888   0.68044
S          S       0.54070   0.79152   0.72671
S          S       0.49482   0.72203   0.51602
S          S       0.26529   0.77085   0.83636
S          S       0.19983   0.74997   0.58747
S          S       0.25257   0.46529   0.73138
S          S       0.22643   0.50997   0.93329
S          S       0.78606   0.25615   0.80495
S          S       0.71537   0.22713   0.59318
S          S       0.77574   0.50730   0.82420
S          S       0.75180   0.55674   0.98972
S          S       0.50469   0.27542   0.60662
S          S       0.46080   0.21028   0.85450
H          H       0.46478   0.94447   0.66998
H          H       0.46599   0.90546   0.65390
H          H       0.54980   0.94739   0.71676
H          H       0.54942   0.98740   0.73514
H          H       0.44269   0.98493   0.61630
H          H       0.39942   0.94576   0.62280
H          H       0.42378   0.91710   0.97775
H          H       0.46778   0.95726   0.96571
H          H       0.47070   0.87110   0.67138
H          H       0.45630   0.82437   0.63211
H          H       0.46549   0.78804   0.62076
H          H       0.54787   0.84192   0.70303
H          H       0.53870   0.87819   0.71283
H          H       0.49364   0.67627   0.95302
H          H       0.50003   0.63832   0.95893
H          H       0.56794   0.68052   0.72781
H          H       0.56174   0.71865   0.72215
H          H       0.55415   0.63470   0.66270
H          H       0.47311   0.56535   0.61373
H          H       0.46805   0.52376   0.66260
H          H       0.55209   0.55595   0.63929
H          H       0.55686   0.59828   0.58571
H          H       0.47277   0.51218   0.94544
H          H       0.43077   0.51067   0.98607
H          H       0.39584   0.45518   0.64713
H          H       0.43807   0.45699   0.60633
H          H       0.36114   0.91433   0.67617
H          H       0.31723   0.88369   0.59225
H          H       0.27750   0.84048   0.59144
H          H       0.31295   0.81398   0.90267
H          H       0.35269   0.85738   0.90271
H          H       0.15402   0.70561   0.50370
H          H       0.11552   0.66109   0.99179
H          H       0.14868   0.63649   0.82271
H          H       0.18723   0.68041   0.83451
H          H       0.10601   0.60546   0.73335
H          H       0.03639   0.59549   0.99211
H          H       0.99789   0.55244   0.54710
H          H       0.05085   0.52600   0.66126
H          H       0.08716   0.56637   0.61751
H          H       0.39206   0.50822   0.99201
H          H       0.35924   0.52184   0.55868
H          H       0.31591   0.51875   0.53055
H          H       0.29587   0.46035   0.70638
H          H       0.33871   0.46352   0.73451
H          H       0.18086   0.51345   0.95451
H          H       0.13710   0.50870   0.91386
H          H       0.12230   0.45313   0.58255
H          H       0.16565   0.45736   0.62288
H          H       0.09126   0.47010   0.61784
H          H       0.07210   0.51072   0.97057
H          H       0.03221   0.51292   0.93785
H          H       0.00945   0.45960   0.58875
H          H       0.04906   0.45637   0.62238
H          H       0.99602   0.56240   0.77016
H          H       0.95843   0.56667   0.82281
H          H       0.91735   0.48736   0.97072
H          H       0.95589   0.48365   0.91221
H          H       0.94554   0.47881   0.62467
H          H       0.90586   0.43699   0.60040
H          H       0.94078   0.40141   0.85004
H          H       0.98173   0.44306   0.86419
H          H       0.87860   0.39486   0.53999
H          H       0.83240   0.36123   0.97444
H          H       0.79333   0.31741   0.50139
H          H       0.83274   0.30086   0.83741
H          H       0.87119   0.34425   0.81075
H          H       0.66804   0.18148   0.56698
H          H       0.63017   0.13759   0.60121
H          H       0.67274   0.12261   0.92518
H          H       0.71072   0.16650   0.89142
H          H       0.62735   0.08884   0.87316
H          H       0.56291   0.07613   0.55196
H          H       0.52010   0.03499   0.57476
H          H       0.54912   0.01253   0.92961
H          H       0.59183   0.05235   0.90833
H          H       0.52590   0.05098   0.87306
H          H       0.52470   0.09023   0.87697
H          H       0.44046   0.04746   0.84531
H          H       0.44081   0.00700   0.83582
H          H       0.92246   0.56618   0.88390
H          H       0.89306   0.58476   0.90602
H          H       0.84842   0.57932   0.91008
H          H       0.81459   0.49559   0.92792
H          H       0.85913   0.50105   0.92832
H          H       0.70436   0.55620   0.53824
H          H       0.65923   0.54889   0.51169
H          H       0.64291   0.49015   0.69610
H          H       0.68750   0.49703   0.72312
H          H       0.60826   0.49935   0.75536
H          H       0.59387   0.56022   0.94033
H          H       0.54992   0.55313   0.88607
H          H       0.52425   0.47213   0.81277
H          H       0.56687   0.47956   0.85547
H          H       0.45581   0.44110   0.88053
H          H       0.45400   0.39984   0.83996
H          H       0.50910   0.43375   0.99547
H          H       0.51108   0.47602   0.53956
H          H       0.44656   0.36402   0.73999
H          H       0.43452   0.32064   0.81547
H          H       0.44092   0.28286   0.82105
H          H       0.50856   0.32318   0.54638
H          H       0.50203   0.36128   0.54212
H          H       0.45688   0.16339   0.92069
H          H       0.46255   0.12503   0.93217
H          H       0.52876   0.16232   0.64792
H          H       0.52315   0.20079   0.63509
H          H       0.51614   0.11847   0.74035
