data_crystal

_cell_length_a    19.36890
_cell_length_b    3.87500
_cell_length_c    61.15240
_cell_angle_alpha 90.00000
_cell_angle_beta  90.00000
_cell_angle_gamma 90.00000

_space_group_name_Hall 'P 1'
_space_group_name_H-M_alt 'P 1'

loop_
_symmetry_equiv_pos_as_xyz
 'x,y,z'

loop_
_atom_site_label
_atom_site_type_symbol
_atom_site_fract_x
_atom_site_fract_y
_atom_site_fract_z
C          C       0.06302   0.03827   0.20370
C          C       0.93698   0.96173   0.20370
C          C       0.93698   0.03827   0.29630
C          C       0.06302   0.96173   0.29630
C          C       0.06358   0.02398   0.22682
C          C       0.93642   0.97602   0.22682
C          C       0.93642   0.02398   0.27318
C          C       0.06358   0.97602   0.27318
C          C       0.12514   0.03097   0.23886
C          C       0.87486   0.96903   0.23886
C          C       0.87486   0.03097   0.26114
C          C       0.12514   0.96903   0.26114
C          C       0.12485   0.09095   0.18943
C          C       0.87515   0.90905   0.18943
C          C       0.87515   0.09095   0.31057
C          C       0.12485   0.90905   0.31057
C          C       0.18709   0.09270   0.30786
C          C       0.81291   0.90730   0.30786
C          C       0.81291   0.09270   0.19214
C          C       0.18709   0.90730   0.19214
C          C       0.23970   0.06815   0.32346
C          C       0.76030   0.93185   0.32346
C          C       0.76030   0.06815   0.17654
C          C       0.23970   0.93185   0.17654
C          C       0.22905   0.88332   0.34281
C          C       0.77095   0.11668   0.34281
C          C       0.77095   0.88332   0.15719
C          C       0.22905   0.11668   0.15719
C          C       0.16790   0.69298   0.34533
C          C       0.83210   0.30702   0.34533
C          C       0.83210   0.69298   0.15467
C          C       0.16790   0.30702   0.15467
C          C       0.11733   0.70226   0.32933
C          C       0.88267   0.29774   0.32933
C          C       0.88267   0.70226   0.17067
C          C       0.11733   0.29774   0.17067
N          N       0.27928   0.09147   0.14005
N          N       0.72072   0.90853   0.14005
N          N       0.72072   0.09147   0.35996
N          N       0.27928   0.90853   0.35996
C          C       0.46509   0.01614   0.04985
C          C       0.53491   0.98386   0.04985
C          C       0.53491   0.01614   0.45015
C          C       0.46509   0.98386   0.45015
S          S       0.58217   0.00594   0.02434
S          S       0.41783   0.99406   0.02434
S          S       0.41783   0.00594   0.47566
S          S       0.58217   0.99406   0.47566
C          C       0.58166   0.93590   0.06912
C          C       0.41834   0.06410   0.06912
C          C       0.41834   0.93590   0.43088
C          C       0.58166   0.06410   0.43088
C          C       0.64175   0.73450   0.06634
C          C       0.35825   0.26550   0.06634
C          C       0.35825   0.73450   0.43366
C          C       0.64175   0.26550   0.43366
C          C       0.69107   0.70914   0.08274
C          C       0.30893   0.29086   0.08274
C          C       0.30893   0.70914   0.41726
C          C       0.69107   0.29086   0.41726
C          C       0.68014   0.86833   0.10290
C          C       0.31986   0.13167   0.10290
C          C       0.31986   0.86833   0.39710
C          C       0.68014   0.13167   0.39710
C          C       0.62028   0.06372   0.10622
C          C       0.37972   0.93628   0.10622
C          C       0.37972   0.06372   0.39378
C          C       0.62028   0.93628   0.39378
C          C       0.57333   0.10845   0.08914
C          C       0.42667   0.89155   0.08914
C          C       0.42667   0.10845   0.41086
C          C       0.57333   0.89155   0.41086
C          C       0.26670   0.83511   0.38028
C          C       0.73330   0.16489   0.38028
C          C       0.73330   0.83511   0.11972
C          C       0.26670   0.16489   0.11972
H          H       0.17462   0.07708   0.23147
H          H       0.82538   0.92292   0.23147
H          H       0.82538   0.07708   0.26853
H          H       0.17462   0.92292   0.26853
H          H       0.19338   0.27851   0.29483
H          H       0.80662   0.72149   0.29483
H          H       0.80662   0.27851   0.20517
H          H       0.19338   0.72149   0.20517
H          H       0.28633   0.21893   0.32139
H          H       0.71367   0.78107   0.32139
H          H       0.71367   0.21893   0.17861
H          H       0.28633   0.78107   0.17861
H          H       0.15892   0.52943   0.35934
H          H       0.84108   0.47057   0.35934
H          H       0.84108   0.52943   0.14066
H          H       0.15892   0.47057   0.14066
H          H       0.07127   0.54922   0.33188
H          H       0.92873   0.45078   0.33188
H          H       0.92873   0.54922   0.16812
H          H       0.07127   0.45078   0.16812
H          H       0.65120   0.59283   0.05140
H          H       0.34880   0.40717   0.05140
H          H       0.34880   0.59283   0.44860
H          H       0.65120   0.40717   0.44860
H          H       0.73697   0.55580   0.07985
H          H       0.26303   0.44420   0.07985
H          H       0.26303   0.55580   0.42014
H          H       0.73697   0.44420   0.42014
H          H       0.61164   0.19755   0.12152
H          H       0.38836   0.80245   0.12152
H          H       0.38836   0.19755   0.37848
H          H       0.61164   0.80245   0.37848
H          H       0.53173   0.28375   0.09162
H          H       0.46827   0.71625   0.09162
H          H       0.46827   0.28375   0.40838
H          H       0.53173   0.71625   0.40838
H          H       0.21606   0.75302   0.38556
H          H       0.78394   0.24698   0.38556
H          H       0.78394   0.75302   0.11444
H          H       0.21606   0.24698   0.11444
C          C       0.00000   0.00000   0.23837
C          C       0.00000   0.00000   0.26163
C          C       0.00000   0.00000   0.19287
C          C       0.00000   0.00000   0.30712
H          H       0.00000   0.00000   0.17518
H          H       0.00000   0.00000   0.32482
Ni         Ni      0.50000   0.00000   0.00000
C          C       0.06302   0.03827   0.70370
C          C       0.93698   0.96173   0.70370
C          C       0.93698   0.03827   0.79630
C          C       0.06302   0.96173   0.79630
C          C       0.06358   0.02398   0.72682
C          C       0.93642   0.97602   0.72682
C          C       0.93642   0.02398   0.77318
C          C       0.06358   0.97602   0.77318
C          C       0.12514   0.03097   0.73886
C          C       0.87486   0.96903   0.73886
C          C       0.87486   0.03097   0.76114
C          C       0.12514   0.96903   0.76114
C          C       0.12485   0.09095   0.68943
C          C       0.87515   0.90905   0.68943
C          C       0.87515   0.09095   0.81057
C          C       0.12485   0.90905   0.81057
C          C       0.18709   0.09270   0.80787
C          C       0.81291   0.90730   0.80787
C          C       0.81291   0.09270   0.69214
C          C       0.18709   0.90730   0.69214
C          C       0.23970   0.06815   0.82346
C          C       0.76030   0.93185   0.82346
C          C       0.76030   0.06815   0.67654
C          C       0.23970   0.93185   0.67654
C          C       0.22905   0.88332   0.84281
C          C       0.77095   0.11668   0.84281
C          C       0.77095   0.88332   0.65719
C          C       0.22905   0.11668   0.65719
C          C       0.16790   0.69298   0.84533
C          C       0.83210   0.30702   0.84533
C          C       0.83210   0.69298   0.65467
C          C       0.16790   0.30702   0.65467
C          C       0.11733   0.70226   0.82934
C          C       0.88267   0.29774   0.82934
C          C       0.88267   0.70226   0.67066
C          C       0.11733   0.29774   0.67066
N          N       0.27928   0.09147   0.64004
N          N       0.72072   0.90853   0.64004
N          N       0.72072   0.09147   0.85996
N          N       0.27928   0.90853   0.85996
C          C       0.46509   0.01614   0.54984
C          C       0.53491   0.98386   0.54984
C          C       0.53491   0.01614   0.95016
C          C       0.46509   0.98386   0.95016
S          S       0.58217   0.00594   0.52434
S          S       0.41783   0.99406   0.52434
S          S       0.41783   0.00594   0.97566
S          S       0.58217   0.99406   0.97566
C          C       0.58166   0.93590   0.56912
C          C       0.41834   0.06410   0.56912
C          C       0.41834   0.93590   0.93088
C          C       0.58166   0.06410   0.93088
C          C       0.64175   0.73450   0.56634
C          C       0.35825   0.26550   0.56634
C          C       0.35825   0.73450   0.93366
C          C       0.64175   0.26550   0.93366
C          C       0.69107   0.70914   0.58274
C          C       0.30893   0.29086   0.58274
C          C       0.30893   0.70914   0.91726
C          C       0.69107   0.29086   0.91726
C          C       0.68014   0.86833   0.60290
C          C       0.31986   0.13167   0.60290
C          C       0.31986   0.86833   0.89710
C          C       0.68014   0.13167   0.89710
C          C       0.62028   0.06372   0.60622
C          C       0.37972   0.93628   0.60622
C          C       0.37972   0.06372   0.89378
C          C       0.62028   0.93628   0.89378
C          C       0.57333   0.10845   0.58914
C          C       0.42667   0.89155   0.58914
C          C       0.42667   0.10845   0.91086
C          C       0.57333   0.89155   0.91086
C          C       0.26670   0.83511   0.88028
C          C       0.73330   0.16489   0.88028
C          C       0.73330   0.83511   0.61972
C          C       0.26670   0.16489   0.61972
H          H       0.17462   0.07708   0.73147
H          H       0.82538   0.92292   0.73147
H          H       0.82538   0.07708   0.76853
H          H       0.17462   0.92292   0.76853
H          H       0.19338   0.27851   0.79482
H          H       0.80662   0.72149   0.79482
H          H       0.80662   0.27851   0.70517
H          H       0.19338   0.72149   0.70517
H          H       0.28633   0.21893   0.82139
H          H       0.71367   0.78107   0.82139
H          H       0.71367   0.21893   0.67861
H          H       0.28633   0.78107   0.67861
H          H       0.15892   0.52943   0.85934
H          H       0.84108   0.47057   0.85934
H          H       0.84108   0.52943   0.64066
H          H       0.15892   0.47057   0.64066
H          H       0.07127   0.54922   0.83188
H          H       0.92873   0.45078   0.83188
H          H       0.92873   0.54922   0.66812
H          H       0.07127   0.45078   0.66812
H          H       0.65120   0.59283   0.55140
H          H       0.34880   0.40717   0.55140
H          H       0.34880   0.59283   0.94860
H          H       0.65120   0.40717   0.94860
H          H       0.73697   0.55580   0.57986
H          H       0.26303   0.44420   0.57986
H          H       0.26303   0.55580   0.92014
H          H       0.73697   0.44420   0.92014
H          H       0.61164   0.19755   0.62152
H          H       0.38836   0.80245   0.62152
H          H       0.38836   0.19755   0.87848
H          H       0.61164   0.80245   0.87848
H          H       0.53173   0.28375   0.59162
H          H       0.46827   0.71625   0.59162
H          H       0.46827   0.28375   0.90838
H          H       0.53173   0.71625   0.90838
H          H       0.21606   0.75302   0.88556
H          H       0.78394   0.24698   0.88556
H          H       0.78394   0.75302   0.61444
H          H       0.21606   0.24698   0.61444
C          C       0.00000   0.00000   0.73837
C          C       0.00000   0.00000   0.76163
C          C       0.00000   0.00000   0.69288
C          C       0.00000   0.00000   0.80712
H          H       0.00000   0.00000   0.67518
H          H       0.00000   0.00000   0.82482
Ni         Ni      0.50000   0.00000   0.50000
