data_crystal

_cell_length_a    18.89020
_cell_length_b    16.94670
_cell_length_c    11.94220
_cell_angle_alpha 127.24300
_cell_angle_beta  61.46250
_cell_angle_gamma 78.97740

_space_group_name_Hall 'P 1'
_space_group_name_H-M_alt 'P 1'

loop_
_symmetry_equiv_pos_as_xyz
 'x,y,z'

loop_
_atom_site_label
_atom_site_type_symbol
_atom_site_fract_x
_atom_site_fract_y
_atom_site_fract_z
C          C       0.43495   0.47675   0.28776
C          C       0.52229   0.41592   0.06150
C          C       0.58943   0.43710   0.02326
C          C       0.56787   0.52031   0.21234
C          C       0.48054   0.58110   0.43853
C          C       0.41341   0.55995   0.47679
C          C       0.32846   0.62302   0.20710
C          C       0.31919   0.68565   0.38237
C          C       0.38492   0.70559   0.34464
C          C       0.45739   0.66197   0.13250
C          C       0.67437   0.37401   0.29293
C          C       0.68365   0.31138   0.11765
C          C       0.61790   0.29144   0.15541
C          C       0.54545   0.33507   0.36752
C          C       0.37234   0.44536   0.31476
C          C       0.63051   0.55168   0.18527
C          C       0.39557   0.36044   0.31004
C          C       0.34969   0.31566   0.29932
C          C       0.28079   0.35546   0.28912
C          C       0.25359   0.44343   0.29988
C          C       0.29872   0.48782   0.31577
C          C       0.70412   0.50923   0.18428
C          C       0.74927   0.55358   0.20009
C          C       0.72209   0.64153   0.21080
C          C       0.65317   0.68136   0.20064
C          C       0.60727   0.63659   0.18998
C          C       0.18002   0.48628   0.29314
N          N       0.13621   0.44705   0.29056
C          C       0.37671   0.22514   0.28834
N          N       0.44062   0.18382   0.29801
C          C       0.62617   0.77186   0.21160
N          N       0.56225   0.81320   0.20196
C          C       0.82286   0.51073   0.20682
N          N       0.86667   0.54994   0.20934
C          C       0.06734   0.47971   0.27761
C          C       0.46645   0.09419   0.27913
C          C       0.93555   0.51730   0.22228
C          C       0.53643   0.90282   0.22083
C          C       0.02689   0.56511   0.28433
C          C       0.03871   0.41562   0.24666
C          C       0.44128   0.02916   0.21334
C          C       0.52691   0.06140   0.31497
C          C       0.56160   0.96785   0.28662
C          C       0.47596   0.93560   0.18497
C          C       0.97600   0.43188   0.21555
C          C       0.96418   0.58139   0.25323
H          H       0.27144   0.61883   0.23893
H          H       0.25922   0.72384   0.05273
H          H       0.37496   0.75863   0.48602
H          H       0.49927   0.68805   0.10651
H          H       0.73140   0.37820   0.26110
H          H       0.74361   0.27319   0.44733
H          H       0.62788   0.23840   0.01404
H          H       0.50356   0.30899   0.39355
H          H       0.45418   0.32093   0.30005
H          H       0.24509   0.32220   0.27822
H          H       0.27938   0.55276   0.31758
H          H       0.72345   0.44430   0.18252
H          H       0.75781   0.67478   0.22165
H          H       0.54867   0.67610   0.19998
H          H       0.16672   0.54865   0.28486
H          H       0.33257   0.20172   0.29173
H          H       0.67032   0.79526   0.20816
H          H       0.83613   0.44839   0.21516
H          H       0.04432   0.61854   0.31439
H          H       0.06914   0.35203   0.24694
H          H       0.39219   0.05335   0.19106
H          H       0.55193   0.10615   0.35030
H          H       0.61068   0.94366   0.30888
H          H       0.45095   0.89086   0.14964
H          H       0.95857   0.37846   0.18550
H          H       0.93375   0.64496   0.25294
C          C       0.43495   0.47675   0.78776
C          C       0.52229   0.41592   0.56150
C          C       0.58943   0.43710   0.52326
C          C       0.56787   0.52031   0.71234
C          C       0.48054   0.58110   0.93853
C          C       0.41341   0.55995   0.97679
C          C       0.32846   0.62302   0.70710
C          C       0.31919   0.68565   0.88237
C          C       0.38492   0.70559   0.84464
C          C       0.45739   0.66197   0.63250
C          C       0.67437   0.37401   0.79293
C          C       0.68365   0.31138   0.61765
C          C       0.61790   0.29144   0.65541
C          C       0.54545   0.33507   0.86752
C          C       0.37234   0.44536   0.81476
C          C       0.63051   0.55168   0.68527
C          C       0.39557   0.36044   0.81004
C          C       0.34969   0.31566   0.79932
C          C       0.28079   0.35546   0.78912
C          C       0.25359   0.44343   0.79988
C          C       0.29872   0.48782   0.81577
C          C       0.70412   0.50923   0.68428
C          C       0.74927   0.55358   0.70009
C          C       0.72209   0.64153   0.71080
C          C       0.65317   0.68136   0.70064
C          C       0.60727   0.63659   0.68998
C          C       0.18002   0.48628   0.79314
N          N       0.13621   0.44705   0.79056
C          C       0.37671   0.22514   0.78834
N          N       0.44062   0.18382   0.79801
C          C       0.62617   0.77186   0.71160
N          N       0.56225   0.81320   0.70196
C          C       0.82286   0.51073   0.70682
N          N       0.86667   0.54994   0.70934
C          C       0.06734   0.47971   0.77761
C          C       0.46645   0.09419   0.77913
C          C       0.93555   0.51730   0.72228
C          C       0.53643   0.90282   0.72083
C          C       0.02689   0.56511   0.78433
C          C       0.03871   0.41562   0.74666
C          C       0.44128   0.02916   0.71334
C          C       0.52691   0.06140   0.81497
C          C       0.56160   0.96785   0.78662
C          C       0.47596   0.93560   0.68497
C          C       0.97600   0.43188   0.71555
C          C       0.96418   0.58139   0.75323
H          H       0.27144   0.61883   0.73893
H          H       0.25922   0.72384   0.55273
H          H       0.37496   0.75863   0.98602
H          H       0.49927   0.68805   0.60651
H          H       0.73140   0.37820   0.76110
H          H       0.74361   0.27319   0.94733
H          H       0.62788   0.23840   0.51404
H          H       0.50356   0.30899   0.89355
H          H       0.45418   0.32093   0.80005
H          H       0.24509   0.32220   0.77822
H          H       0.27938   0.55276   0.81758
H          H       0.72345   0.44430   0.68252
H          H       0.75781   0.67478   0.72165
H          H       0.54867   0.67610   0.69998
H          H       0.16672   0.54865   0.78486
H          H       0.33257   0.20172   0.79173
H          H       0.67032   0.79526   0.70816
H          H       0.83613   0.44839   0.71516
H          H       0.04432   0.61854   0.81439
H          H       0.06914   0.35203   0.74694
H          H       0.39219   0.05335   0.69106
H          H       0.55193   0.10615   0.85030
H          H       0.61068   0.94366   0.80888
H          H       0.45095   0.89086   0.64964
H          H       0.95857   0.37846   0.68550
H          H       0.93375   0.64496   0.75294
