data_crystal

_cell_length_a    25.92000
_cell_length_b    25.92000
_cell_length_c    7.86000
_cell_angle_alpha 84.45000
_cell_angle_beta  84.45000
_cell_angle_gamma 120.00000

_space_group_name_Hall 'P 1'
_space_group_name_H-M_alt 'P 1'

loop_
_symmetry_equiv_pos_as_xyz
 'x,y,z'

loop_
_atom_site_label
_atom_site_type_symbol
_atom_site_fract_x
_atom_site_fract_y
_atom_site_fract_z
C          C       0.43460   0.99257   0.21558
C          C       0.16300   0.55756   0.14226
C          C       0.49252   0.04549   0.16830
C          C       0.55666   0.22086   0.14916
C          C       0.98630   0.38287   0.22004
C          C       0.49079   0.44427   0.18730
C          C       0.65780   0.26988   0.22392
C          C       0.98624   0.43702   0.23905
C          C       0.43370   0.43864   0.23207
C          C       0.55416   0.33167   0.17021
C          C       0.65636   0.37994   0.23641
C          C       0.98522   0.59774   0.28310
C          C       0.47876   0.93618   0.33379
C          C       0.36121   0.81468   0.34164
C          C       0.76075   0.32075   0.30583
C          C       0.41280   0.81244   0.37215
C          C       0.65795   0.21611   0.20972
C          C       0.58792   0.98774   0.33240
C          C       0.75897   0.42629   0.32188
C          C       0.65576   0.43430   0.22807
C          C       0.31377   0.71157   0.27794
C          C       0.41489   0.76083   0.35269
C          C       0.26342   0.60487   0.22533
C          C       0.48096   0.53744   0.32045
C          C       0.93194   0.48707   0.32561
C          C       0.31349   0.76531   0.29182
C          C       0.59081   0.59567   0.30446
C          C       0.21083   0.66037   0.19609
C          C       0.54381   0.04356   0.20173
C          C       0.38095   0.38604   0.20345
C          C       0.80963   0.36984   0.35241
C          C       0.54330   0.49681   0.20867
C          C       0.31537   0.60151   0.26751
C          C       0.26257   0.65919   0.23144
C          C       0.41763   0.65011   0.33341
C          C       0.03905   0.54706   0.18827
C          C       0.80868   0.42339   0.36101
C          C       0.36684   0.65385   0.30205
C          C       0.42747   0.93809   0.30025
C          C       0.31593   0.54710   0.27783
C          C       0.36442   0.54310   0.32381
C          C       0.60588   0.27235   0.19238
C          C       0.93257   0.43364   0.31464
C          C       0.41671   0.59585   0.34761
C          C       0.60491   0.32777   0.20093
C          C       0.38329   0.99396   0.17038
C          C       0.21281   0.55487   0.18161
C          C       0.03970   0.49363   0.17753
C          C       0.42844   0.48485   0.29949
C          C       0.16197   0.61111   0.15011
C          C       0.70906   0.32210   0.27082
C          C       0.36576   0.70926   0.30962
C          C       0.98536   0.54365   0.26390
C          C       0.55861   0.16920   0.12945
C          C       0.53665   0.98912   0.28676
C          C       0.53805   0.54305   0.27596
C          C       0.61017   0.16685   0.15974
C          C       0.70830   0.37644   0.27785
C          C       0.55505   0.38590   0.15795
C          C       0.60727   0.43848   0.18296
H          H       0.27697   0.50597   0.25459
H          H       0.20807   0.70066   0.20384
H          H       0.45872   0.68999   0.35262
H          H       0.21186   0.51256   0.17694
H          H       0.51589   0.22094   0.12689
H          H       0.69640   0.21215   0.23626
H          H       0.51311   0.29194   0.15013
H          H       0.69468   0.47525   0.25230
H          H       0.27497   0.76912   0.26521
H          H       0.76345   0.28046   0.29740
H          H       0.45568   0.76086   0.37527
H          H       0.76004   0.46864   0.32701
N          N       0.63315   0.63824   0.33453
N          N       0.98661   0.33900   0.19872
N          N       0.34235   0.99546   0.12491
N          N       0.98487   0.64157   0.30468
N          N       0.33863   0.34348   0.17324
N          N       0.62877   0.98618   0.37838
S          S       0.49188   0.38583   0.09473
S          S       0.10135   0.61862   0.09730
S          S       0.61767   0.10455   0.12757
S          S       0.61642   0.51076   0.14244
S          S       0.47406   0.87143   0.44433
S          S       0.86805   0.48668   0.42535
S          S       0.49726   0.11023   0.05752
S          S       0.35360   0.87694   0.37362
S          S       0.47981   0.59603   0.41197
S          S       0.10370   0.49407   0.07842
S          S       0.35534   0.47088   0.36622
S          S       0.87014   0.36208   0.40500
C          C       0.43460   0.99257   0.71558
C          C       0.16300   0.55756   0.64226
C          C       0.49252   0.04549   0.66830
C          C       0.55666   0.22086   0.64916
C          C       0.98630   0.38287   0.72004
C          C       0.49079   0.44427   0.68730
C          C       0.65780   0.26988   0.72392
C          C       0.98624   0.43702   0.73905
C          C       0.43370   0.43864   0.73207
C          C       0.55416   0.33167   0.67021
C          C       0.65636   0.37994   0.73641
C          C       0.98522   0.59774   0.78310
C          C       0.47876   0.93618   0.83379
C          C       0.36121   0.81468   0.84164
C          C       0.76075   0.32075   0.80583
C          C       0.41280   0.81244   0.87215
C          C       0.65795   0.21611   0.70972
C          C       0.58792   0.98774   0.83240
C          C       0.75897   0.42629   0.82188
C          C       0.65576   0.43430   0.72807
C          C       0.31377   0.71157   0.77794
C          C       0.41489   0.76083   0.85269
C          C       0.26342   0.60487   0.72533
C          C       0.48096   0.53744   0.82045
C          C       0.93194   0.48707   0.82561
C          C       0.31349   0.76531   0.79182
C          C       0.59081   0.59567   0.80446
C          C       0.21083   0.66037   0.69609
C          C       0.54381   0.04356   0.70173
C          C       0.38095   0.38604   0.70345
C          C       0.80962   0.36984   0.85242
C          C       0.54330   0.49681   0.70867
C          C       0.31537   0.60151   0.76751
C          C       0.26257   0.65919   0.73144
C          C       0.41763   0.65011   0.83341
C          C       0.03905   0.54706   0.68827
C          C       0.80868   0.42339   0.86101
C          C       0.36684   0.65385   0.80205
C          C       0.42747   0.93809   0.80025
C          C       0.31593   0.54710   0.77783
C          C       0.36442   0.54310   0.82381
C          C       0.60588   0.27235   0.69238
C          C       0.93257   0.43364   0.81464
C          C       0.41671   0.59585   0.84761
C          C       0.60491   0.32777   0.70093
C          C       0.38329   0.99396   0.67038
C          C       0.21281   0.55487   0.68161
C          C       0.03970   0.49363   0.67753
C          C       0.42844   0.48485   0.79949
C          C       0.16197   0.61111   0.65011
C          C       0.70906   0.32210   0.77082
C          C       0.36576   0.70926   0.80962
C          C       0.98536   0.54365   0.76390
C          C       0.55861   0.16920   0.62945
C          C       0.53665   0.98912   0.78676
C          C       0.53805   0.54305   0.77596
C          C       0.61017   0.16685   0.65974
C          C       0.70830   0.37644   0.77785
C          C       0.55505   0.38590   0.65795
C          C       0.60727   0.43848   0.68296
H          H       0.27697   0.50597   0.75459
H          H       0.20807   0.70066   0.70384
H          H       0.45872   0.68999   0.85262
H          H       0.21186   0.51256   0.67694
H          H       0.51589   0.22094   0.62689
H          H       0.69640   0.21215   0.73626
H          H       0.51311   0.29194   0.65013
H          H       0.69468   0.47525   0.75230
H          H       0.27497   0.76912   0.76521
H          H       0.76345   0.28046   0.79741
H          H       0.45568   0.76086   0.87526
H          H       0.76004   0.46864   0.82701
N          N       0.63315   0.63824   0.83453
N          N       0.98661   0.33900   0.69872
N          N       0.34235   0.99546   0.62491
N          N       0.98487   0.64157   0.80468
N          N       0.33863   0.34348   0.67324
N          N       0.62877   0.98618   0.87838
S          S       0.49188   0.38583   0.59473
S          S       0.10135   0.61862   0.59730
S          S       0.61767   0.10455   0.62757
S          S       0.61642   0.51076   0.64244
S          S       0.47406   0.87143   0.94433
S          S       0.86805   0.48668   0.92535
S          S       0.49726   0.11023   0.55752
S          S       0.35360   0.87694   0.87362
S          S       0.47981   0.59603   0.91197
S          S       0.10370   0.49407   0.57842
S          S       0.35534   0.47088   0.86622
S          S       0.87014   0.36208   0.90500
