data_crystal

_cell_length_a    36.12000
_cell_length_b    36.12000
_cell_length_c    7.22000
_cell_angle_alpha 90.00000
_cell_angle_beta  90.00000
_cell_angle_gamma 120.00000

_space_group_name_Hall 'P 1'
_space_group_name_H-M_alt 'P 1'

loop_
_symmetry_equiv_pos_as_xyz
 'x,y,z'

loop_
_atom_site_label
_atom_site_type_symbol
_atom_site_fract_x
_atom_site_fract_y
_atom_site_fract_z
C          C       0.35522   0.67025   0.38720
C          C       0.31277   0.66058   0.37830
C          C       0.27953   0.62016   0.43854
C          C       0.28958   0.58935   0.00978
C          C       0.33274   0.60053   0.02653
C          C       0.36383   0.64049   0.46415
C          C       0.39230   0.71092   0.32702
C          C       0.35018   0.57400   0.10020
C          C       0.23506   0.61144   0.42548
C          C       0.38914   0.74742   0.29778
C          C       0.42637   0.78677   0.27556
C          C       0.46692   0.79012   0.28371
C          C       0.46980   0.75331   0.29717
C          C       0.43277   0.71404   0.31847
C          C       0.39068   0.59683   0.18568
C          C       0.41779   0.58059   0.19691
C          C       0.40549   0.54078   0.12203
C          C       0.36384   0.51533   0.04845
C          C       0.33606   0.53215   0.03659
C          C       0.20028   0.56958   0.42583
C          C       0.15865   0.56236   0.40470
C          C       0.15132   0.59686   0.38331
C          C       0.18587   0.63850   0.38719
C          C       0.22734   0.64574   0.40709
C          C       0.43913   0.49825   0.02045
C          C       0.47795   0.50025   0.49093
C          C       0.46874   0.46261   0.40872
C          C       0.42505   0.43677   0.38652
C          C       0.40308   0.45946   0.45728
C          C       0.49783   0.45021   0.35159
C          C       0.48018   0.40962   0.27172
C          C       0.43656   0.38328   0.25041
C          C       0.40732   0.39589   0.30718
C          C       0.46922   0.34899   0.13628
C          C       0.51515   0.31733   0.03244
C          C       0.55542   0.35033   0.09459
C          C       0.59064   0.34375   0.10228
C          C       0.58547   0.30425   0.04569
C          C       0.54550   0.27292   0.47435
C          C       0.51097   0.27933   0.46697
C          C       0.61387   0.28858   0.11310
C          C       0.65836   0.30766   0.08615
C          C       0.67916   0.28493   0.14439
C          C       0.65534   0.24460   0.23273
C          C       0.61177   0.22711   0.26516
C          C       0.59234   0.24915   0.20122
C          C       0.72471   0.30031   0.10502
C          C       0.58449   0.18612   0.36159
C          C       0.73808   0.27008   0.08667
C          C       0.78093   0.28285   0.06032
C          C       0.81144   0.32611   0.05283
C          C       0.79851   0.35683   0.06730
C          C       0.75516   0.34395   0.09248
C          C       0.59973   0.15898   0.41753
C          C       0.57198   0.12028   0.00697
C          C       0.52922   0.10884   0.04269
C          C       0.51425   0.13585   0.48717
C          C       0.54163   0.17413   0.39848
C          C       0.50658   0.83143   0.30640
C          C       0.50767   0.86704   0.38731
C          C       0.47033   0.86629   0.45719
C          C       0.48714   0.90966   0.02627
C          C       0.53089   0.93308   0.00237
C          C       0.54657   0.90625   0.41448
C          C       0.10834   0.59124   0.35770
C          C       0.07160   0.55375   0.30564
C          C       0.03166   0.55245   0.29060
C          C       0.00285   0.50786   0.23011
C          C       0.02548   0.48662   0.20981
C          C       0.07084   0.51506   0.25696
C          C       0.55423   0.97629   0.05265
C          C       0.00583   0.44384   0.15345
C          C       0.85621   0.33659   0.03851
C          C       0.89273   0.37608   0.06269
C          C       0.89302   0.41482   0.10623
C          C       0.93891   0.44448   0.14232
C          C       0.96184   0.42360   0.11928
C          C       0.93336   0.37883   0.06306
C          C       0.49802   0.06852   0.13108
C          C       0.50564   0.03745   0.20413
C          C       0.46979   0.99618   0.22846
C          C       0.48676   0.96960   0.15529
C          C       0.53044   0.99366   0.12919
C          C       0.54528   0.03832   0.18009
C          C       0.95866   0.48744   0.19792
C          C       0.46351   0.92687   0.10282
C          C       0.42737   0.34254   0.16280
C          C       0.50336   0.38874   0.20101
C          C       0.47486   0.31745   0.05447
C          C       0.43872   0.53257   0.10213
O          O       0.58551   0.08304   0.18003
O          O       0.58767   0.90329   0.41442
O          O       0.42773   0.99734   0.22840
O          O       0.42218   0.83324   0.45713
O          O       0.92873   0.33404   0.06301
O          O       0.85126   0.41001   0.18777
O          O       0.10689   0.50400   0.25690
O          O       0.04250   0.59945   0.29054
O          O       0.35564   0.44728   0.45723
O          O       0.51933   0.53364   0.08984
O          O       0.55154   0.40403   0.20101
O          O       0.38669   0.29809   0.16280
H          H       0.30496   0.68549   0.32204
H          H       0.26271   0.55599   0.05258
H          H       0.39917   0.65049   0.47503
H          H       0.35655   0.74524   0.29202
H          H       0.42441   0.81694   0.25035
H          H       0.50250   0.75572   0.29061
H          H       0.43465   0.68352   0.32942
H          H       0.40089   0.62983   0.24697
H          H       0.45043   0.60005   0.26813
H          H       0.35258   0.48124   0.49862
H          H       0.30244   0.51175   0.47564
H          H       0.20572   0.54128   0.44329
H          H       0.13015   0.52818   0.40468
H          H       0.18027   0.66678   0.37408
H          H       0.25578   0.67995   0.40870
H          H       0.53412   0.47111   0.36694
H          H       0.37142   0.37318   0.28736
H          H       0.55946   0.38253   0.13884
H          H       0.62311   0.37049   0.15434
H          H       0.54090   0.24111   0.42042
H          H       0.47903   0.25331   0.40692
H          H       0.67780   0.34085   0.01873
H          H       0.67184   0.22616   0.27797
H          H       0.55627   0.23481   0.22008
H          H       0.71295   0.23448   0.09382
H          H       0.79103   0.25776   0.04483
H          H       0.82339   0.39248   0.05854
H          H       0.74495   0.36905   0.10260
H          H       0.63454   0.16837   0.39034
H          H       0.58391   0.09773   0.05152
H          H       0.47941   0.12625   0.01520
H          H       0.52963   0.19661   0.35382
H          H       0.53846   0.83542   0.25658
H          H       0.10305   0.61946   0.38123
H          H       0.59048   0.99526   0.03057
H          H       0.02566   0.42749   0.13784
H          H       0.86392   0.31038   0.00360
H          H       0.46312   0.05996   0.14547
H          H       0.93880   0.50372   0.21449
H          H       0.42722   0.90801   0.12335
H          H       0.44612   0.28731   0.49474
H          H       0.46930   0.55984   0.16665
C          C       0.35522   0.67025   0.88720
C          C       0.31277   0.66058   0.87830
C          C       0.27953   0.62016   0.93854
C          C       0.28958   0.58935   0.50978
C          C       0.33274   0.60053   0.52653
C          C       0.36383   0.64049   0.96415
C          C       0.39230   0.71092   0.82702
C          C       0.35018   0.57400   0.60020
C          C       0.23506   0.61144   0.92548
C          C       0.38914   0.74742   0.79778
C          C       0.42637   0.78677   0.77556
C          C       0.46692   0.79012   0.78371
C          C       0.46980   0.75331   0.79717
C          C       0.43277   0.71404   0.81847
C          C       0.39068   0.59683   0.68568
C          C       0.41779   0.58059   0.69691
C          C       0.40549   0.54078   0.62203
C          C       0.36384   0.51533   0.54845
C          C       0.33606   0.53215   0.53659
C          C       0.20028   0.56958   0.92583
C          C       0.15865   0.56236   0.90470
C          C       0.15132   0.59686   0.88331
C          C       0.18587   0.63850   0.88719
C          C       0.22734   0.64574   0.90709
C          C       0.43913   0.49825   0.52045
C          C       0.47795   0.50025   0.99093
C          C       0.46874   0.46261   0.90872
C          C       0.42505   0.43677   0.88652
C          C       0.40308   0.45946   0.95728
C          C       0.49783   0.45021   0.85159
C          C       0.48018   0.40962   0.77172
C          C       0.43656   0.38328   0.75041
C          C       0.40732   0.39589   0.80719
C          C       0.46922   0.34899   0.63628
C          C       0.51515   0.31733   0.53244
C          C       0.55542   0.35033   0.59459
C          C       0.59064   0.34375   0.60228
C          C       0.58547   0.30425   0.54569
C          C       0.54550   0.27292   0.97435
C          C       0.51097   0.27933   0.96697
C          C       0.61387   0.28858   0.61310
C          C       0.65836   0.30766   0.58615
C          C       0.67916   0.28493   0.64439
C          C       0.65534   0.24460   0.73273
C          C       0.61177   0.22711   0.76516
C          C       0.59234   0.24915   0.70122
C          C       0.72471   0.30031   0.60502
C          C       0.58449   0.18612   0.86159
C          C       0.73808   0.27008   0.58667
C          C       0.78093   0.28285   0.56032
C          C       0.81144   0.32611   0.55283
C          C       0.79851   0.35683   0.56730
C          C       0.75516   0.34395   0.59248
C          C       0.59973   0.15898   0.91753
C          C       0.57198   0.12028   0.50697
C          C       0.52922   0.10884   0.54269
C          C       0.51425   0.13585   0.98717
C          C       0.54163   0.17413   0.89848
C          C       0.50658   0.83143   0.80640
C          C       0.50767   0.86704   0.88731
C          C       0.47033   0.86629   0.95719
C          C       0.48714   0.90966   0.52627
C          C       0.53089   0.93308   0.50237
C          C       0.54657   0.90625   0.91448
C          C       0.10834   0.59124   0.85770
C          C       0.07160   0.55375   0.80564
C          C       0.03166   0.55245   0.79060
C          C       0.00285   0.50786   0.73011
C          C       0.02548   0.48662   0.70981
C          C       0.07084   0.51506   0.75696
C          C       0.55423   0.97629   0.55265
C          C       0.00583   0.44384   0.65344
C          C       0.85621   0.33659   0.53851
C          C       0.89273   0.37608   0.56269
C          C       0.89302   0.41482   0.60623
C          C       0.93891   0.44448   0.64232
C          C       0.96184   0.42360   0.61928
C          C       0.93336   0.37883   0.56306
C          C       0.49802   0.06852   0.63108
C          C       0.50564   0.03745   0.70413
C          C       0.46979   0.99618   0.72846
C          C       0.48676   0.96960   0.65529
C          C       0.53044   0.99366   0.62919
C          C       0.54528   0.03832   0.68009
C          C       0.95866   0.48744   0.69793
C          C       0.46351   0.92687   0.60282
C          C       0.42737   0.34254   0.66280
C          C       0.50336   0.38874   0.70101
C          C       0.47486   0.31745   0.55448
C          C       0.43872   0.53257   0.60213
O          O       0.58551   0.08304   0.68003
O          O       0.58767   0.90329   0.91443
O          O       0.42773   0.99734   0.72840
O          O       0.42218   0.83324   0.95713
O          O       0.92873   0.33404   0.56301
O          O       0.85126   0.41001   0.68778
O          O       0.10689   0.50400   0.75691
O          O       0.04250   0.59945   0.79054
O          O       0.35564   0.44728   0.95723
O          O       0.51933   0.53364   0.58984
O          O       0.55154   0.40403   0.70101
O          O       0.38669   0.29809   0.66280
H          H       0.30496   0.68549   0.82204
H          H       0.26271   0.55599   0.55258
H          H       0.39917   0.65049   0.97502
H          H       0.35655   0.74524   0.79202
H          H       0.42441   0.81694   0.75035
H          H       0.50250   0.75572   0.79061
H          H       0.43465   0.68352   0.82942
H          H       0.40089   0.62983   0.74697
H          H       0.45043   0.60005   0.76813
H          H       0.35258   0.48124   0.99862
H          H       0.30244   0.51175   0.97564
H          H       0.20572   0.54128   0.94329
H          H       0.13015   0.52818   0.90468
H          H       0.18027   0.66678   0.87408
H          H       0.25578   0.67995   0.90870
H          H       0.53412   0.47111   0.86695
H          H       0.37142   0.37318   0.78736
H          H       0.55946   0.38253   0.63884
H          H       0.62311   0.37049   0.65434
H          H       0.54090   0.24111   0.92043
H          H       0.47903   0.25331   0.90692
H          H       0.67780   0.34085   0.51873
H          H       0.67184   0.22616   0.77797
H          H       0.55627   0.23481   0.72008
H          H       0.71295   0.23448   0.59382
H          H       0.79103   0.25776   0.54483
H          H       0.82339   0.39248   0.55854
H          H       0.74495   0.36905   0.60260
H          H       0.63454   0.16837   0.89034
H          H       0.58391   0.09773   0.55152
H          H       0.47941   0.12625   0.51520
H          H       0.52963   0.19661   0.85382
H          H       0.53846   0.83542   0.75658
H          H       0.10305   0.61946   0.88123
H          H       0.59048   0.99526   0.53057
H          H       0.02566   0.42749   0.63784
H          H       0.86392   0.31038   0.50360
H          H       0.46312   0.05996   0.64547
H          H       0.93880   0.50372   0.71449
H          H       0.42722   0.90801   0.62335
H          H       0.44612   0.28731   0.99474
H          H       0.46930   0.55984   0.66665
