data_TBPB_COF
_audit_creation_date              0000-00-00
_audit_creation_method            'LanYouShi'
_symmetry_space_group_name_H-M    'P1'
_cell_length_a                    22.7819996
_cell_length_b                    22.7819996
_cell_length_c                    3.4000001
_cell_angle_alpha                 90.0000000
_cell_angle_beta                  90.0000000
_cell_angle_gamma                 120.0000000
loop_
_atom_site_label
_atom_site_type_symbol
_atom_site_fract_x
_atom_site_fract_y
_atom_site_fract_z
_atom_site_U_iso_or_equiv
_atom_site_adp_type
_atom_site_occupancy
        C1          C  0.5709096  0.5354545  1.4705881    0.00000       Uiso       1.00
        C2          C  0.5354545  0.4645443  1.4705883    0.00000       Uiso       1.00
        C3          C  0.4645444  0.4290892  1.4705881    0.00000       Uiso       1.00
        C4          C  0.4290893  0.4645443  1.4705883    0.00000       Uiso       1.00
        C5          C  0.4645444  0.5354545  1.4705882    0.00000       Uiso       1.00
        C6          C  0.5354546  0.5709096  1.4705882    0.00000       Uiso       1.00
        H1          H  0.5628836  0.4371152  1.4705886    0.00000       Uiso       1.00
        H2          H  0.3742312  0.4371153  1.4705881    0.00000       Uiso       1.00
        H3          H  0.5628836  0.6257677  1.4705882    0.00000       Uiso       1.00
        C7          C  0.0957564  0.7978773  1.4705862    0.00000       Uiso       1.00
        C8          C  0.1312114  0.7624221  1.4705862    0.00000       Uiso       1.00
        C9          C  0.2021216  0.7978773  1.4705865    0.00000       Uiso       1.00
       C10          C  0.2375767  0.8687874  1.4705861    0.00000       Uiso       1.00
       C11          C  0.2021216  0.9042425  1.4705861    0.00000       Uiso       1.00
       C12          C  0.1312114  0.8687874  1.4705861    0.00000       Uiso       1.00
        H4          H  0.1037824  0.7075640  1.4705859    0.00000       Uiso       1.00
        H5          H  0.2924348  0.8962165  1.4705864    0.00000       Uiso       1.00
        H6          H  0.1037824  0.8962165  1.4705859    0.00000       Uiso       1.00
       C13          C  0.0156682  0.7578332  1.4705865    0.00000       Uiso       1.00
       C14          C  0.9794996  0.6865758  1.4705867    0.00000       Uiso       1.00
       C15          C  0.9085232  0.7574349  1.4705869    0.00000       Uiso       1.00
        H7          H  0.0062995  0.6583974  1.4705867    0.00000       Uiso       1.00
       C16          C  0.9794996  0.7929231  1.4705867    0.00000       Uiso       1.00
       C17          C  0.9085232  0.6510876  1.4705869    0.00000       Uiso       1.00
        H8          H  0.0062995  0.8479002  1.4705865    0.00000       Uiso       1.00
       C18          C  0.8723558  0.6861776  1.4705870    0.00000       Uiso       1.00
       C19          C  0.7943090  0.6471542  1.4705874    0.00000       Uiso       1.00
       C20          C  0.7581416  0.5758969  1.4705875    0.00000       Uiso       1.00
       C21          C  0.6871652  0.6467559  1.4705876    0.00000       Uiso       1.00
        H9          H  0.7849403  0.5477184  1.4705875    0.00000       Uiso       1.00
       C22          C  0.7581416  0.6822441  1.4705874    0.00000       Uiso       1.00
       C23          C  0.6871652  0.5404087  1.4705877    0.00000       Uiso       1.00
       H10          H  0.7849403  0.7372212  1.4705874    0.00000       Uiso       1.00
       C24          C  0.6509978  0.5754985  1.4705877    0.00000       Uiso       1.00
       H11          H  0.6603665  0.4854315  1.4705880    0.00000       Uiso       1.00
       H12          H  0.8817245  0.5961105  1.4705870    0.00000       Uiso       1.00
       H13          H  0.6603665  0.6749343  1.4705877    0.00000       Uiso       1.00
       H14          H  0.8817245  0.7856134  1.4705869    0.00000       Uiso       1.00
       C25          C  0.2421657  0.7578332  1.4705868    0.00000       Uiso       1.00
       C26          C  0.2070758  0.6865758  1.4705869    0.00000       Uiso       1.00
       C27          C  0.3489112  0.7574349  1.4705870    0.00000       Uiso       1.00
       H15          H  0.1520986  0.6583974  1.4705869    0.00000       Uiso       1.00
       C28          C  0.3134230  0.7929231  1.4705868    0.00000       Uiso       1.00
       C29          C  0.2425640  0.6510877  1.4705873    0.00000       Uiso       1.00
       H16          H  0.3416015  0.8479002  1.4705867    0.00000       Uiso       1.00
       C30          C  0.3138213  0.6861776  1.4705873    0.00000       Uiso       1.00
       C31          C  0.3528447  0.6471542  1.4705875    0.00000       Uiso       1.00
       C32          C  0.3177548  0.5758969  1.4705876    0.00000       Uiso       1.00
       C33          C  0.4595902  0.6467559  1.4705877    0.00000       Uiso       1.00
       H17          H  0.2627776  0.5477184  1.4705876    0.00000       Uiso       1.00
       C34          C  0.4241020  0.6822441  1.4705875    0.00000       Uiso       1.00
       C35          C  0.3532430  0.5404087  1.4705880    0.00000       Uiso       1.00
       H18          H  0.4522805  0.7372212  1.4705874    0.00000       Uiso       1.00
       C36          C  0.4245003  0.5754985  1.4705880    0.00000       Uiso       1.00
       H19          H  0.3250645  0.4854315  1.4705881    0.00000       Uiso       1.00
       H20          H  0.2143855  0.5961105  1.4705874    0.00000       Uiso       1.00
       H21          H  0.5145674  0.6749343  1.4705877    0.00000       Uiso       1.00
       H22          H  0.4038884  0.7856134  1.4705870    0.00000       Uiso       1.00
       C37          C  0.2421657  0.9843307  1.4705843    0.00000       Uiso       1.00
       C38          C  0.3134229  0.0204993  1.4705845    0.00000       Uiso       1.00
       C39          C  0.2425639  0.0914757  1.4705852    0.00000       Uiso       1.00
       H23          H  0.3416015  0.9936994  1.4705844    0.00000       Uiso       1.00
       C40          C  0.2070757  0.0204993  1.4705846    0.00000       Uiso       1.00
       C41          C  0.3489111  0.0914756  1.4705852    0.00000       Uiso       1.00
       H24          H  0.1520987  0.9936994  1.4705844    0.00000       Uiso       1.00
       C42          C  0.3138213  0.1276431  1.4705856    0.00000       Uiso       1.00
       C43          C  0.3528446  0.2056898  1.4705862    0.00000       Uiso       1.00
       C44          C  0.4241019  0.2418572  1.4705865    0.00000       Uiso       1.00
       C45          C  0.3532429  0.3128337  1.4705870    0.00000       Uiso       1.00
       H25          H  0.4522804  0.2150585  1.4705862    0.00000       Uiso       1.00
       C46          C  0.3177547  0.2418573  1.4705865    0.00000       Uiso       1.00
       C47          C  0.4595902  0.3128336  1.4705870    0.00000       Uiso       1.00
       H26          H  0.2627776  0.2150586  1.4705862    0.00000       Uiso       1.00
       C48          C  0.4245003  0.3490011  1.4705874    0.00000       Uiso       1.00
       H27          H  0.5145673  0.3396323  1.4705873    0.00000       Uiso       1.00
       H28          H  0.4038883  0.1182744  1.4705853    0.00000       Uiso       1.00
       H29          H  0.3250645  0.3396324  1.4705874    0.00000       Uiso       1.00
       H30          H  0.2143855  0.1182744  1.4705856    0.00000       Uiso       1.00
