data_crystal

_cell_length_a    28.00000
_cell_length_b    28.00000
_cell_length_c    8.88000
_cell_angle_alpha 90.00000
_cell_angle_beta  90.00000
_cell_angle_gamma 120.00000

_space_group_name_Hall 'P 1'
_space_group_name_H-M_alt 'P 1'

loop_
_symmetry_equiv_pos_as_xyz
 'x,y,z'

loop_
_atom_site_label
_atom_site_type_symbol
_atom_site_fract_x
_atom_site_fract_y
_atom_site_fract_z
C          C       0.70187   0.39632   0.01722
C          C       0.60368   0.30555   0.01722
C          C       0.69445   0.29813   0.01722
C          C       0.29813   0.60368   0.48279
C          C       0.39632   0.69445   0.48279
C          C       0.30555   0.70187   0.48279
O          O       0.95871   0.87279   0.43454
O          O       0.12721   0.08592   0.43454
O          O       0.91408   0.04129   0.43454
O          O       0.04129   0.12721   0.06546
O          O       0.87279   0.91408   0.06546
O          O       0.08592   0.95871   0.06546
P          P       0.00105   0.93693   0.04880
P          P       0.06307   0.06412   0.04880
P          P       0.93588   0.99895   0.04880
P          P       0.99895   0.06307   0.45120
P          P       0.93693   0.93588   0.45120
P          P       0.06412   0.00105   0.45120
C          C       0.43098   0.74892   0.44393
C          C       0.25108   0.68206   0.44393
C          C       0.31794   0.56902   0.44393
C          C       0.56902   0.25108   0.05607
C          C       0.74892   0.31794   0.05607
C          C       0.68206   0.43098   0.05607
C          C       0.49101   0.77753   0.44832
C          C       0.22247   0.71348   0.44832
C          C       0.28652   0.50899   0.44832
C          C       0.50899   0.22247   0.05168
C          C       0.77753   0.28652   0.05168
C          C       0.71348   0.49101   0.05168
C          C       0.52119   0.75694   0.02841
C          C       0.24306   0.76425   0.02841
C          C       0.23575   0.47881   0.02841
C          C       0.47881   0.24306   0.47159
C          C       0.75694   0.23575   0.47159
C          C       0.76425   0.52119   0.47159
C          C       0.48648   0.70564   0.10189
C          C       0.29436   0.78084   0.10189
C          C       0.21916   0.51352   0.10189
C          C       0.51352   0.29436   0.39810
C          C       0.70564   0.21916   0.39810
C          C       0.78084   0.48648   0.39810
C          C       0.42697   0.67686   0.09603
C          C       0.32314   0.75011   0.09603
C          C       0.24989   0.57303   0.09603
C          C       0.57303   0.32314   0.40397
C          C       0.67686   0.24989   0.40397
C          C       0.75011   0.42697   0.40397
C          C       0.58660   0.78512   0.04265
C          C       0.21488   0.80148   0.04265
C          C       0.19852   0.41340   0.04265
C          C       0.41340   0.21488   0.45735
C          C       0.78512   0.19852   0.45735
C          C       0.80148   0.58660   0.45735
N          N       0.62658   0.83074   0.47612
N          N       0.16926   0.79584   0.47612
N          N       0.20416   0.37342   0.47612
N          N       0.37342   0.16926   0.02388
N          N       0.83074   0.20416   0.02388
N          N       0.79584   0.62658   0.02388
C          C       0.68918   0.86040   0.48118
C          C       0.13960   0.82878   0.48118
C          C       0.17122   0.31082   0.48118
C          C       0.31082   0.13960   0.01881
C          C       0.86040   0.17122   0.01881
C          C       0.82878   0.68918   0.01881
H          H       0.70696   0.51745   0.14332
H          H       0.48255   0.18951   0.14332
H          H       0.81049   0.29304   0.14332
H          H       0.29304   0.48255   0.35668
H          H       0.51745   0.81049   0.35668
H          H       0.18951   0.70696   0.35668
H          H       0.64926   0.41550   0.15338
H          H       0.58450   0.23376   0.15338
H          H       0.76624   0.35074   0.15338
H          H       0.35074   0.58450   0.34662
H          H       0.41550   0.76624   0.34662
H          H       0.23376   0.64926   0.34662
H          H       0.82366   0.50149   0.36589
H          H       0.49851   0.32217   0.36589
H          H       0.67783   0.17634   0.36589
H          H       0.17634   0.49851   0.13411
H          H       0.50149   0.67783   0.13411
H          H       0.32217   0.82366   0.13411
H          H       0.76730   0.40080   0.37792
H          H       0.59920   0.36650   0.37792
H          H       0.63350   0.23270   0.37792
H          H       0.23270   0.59920   0.12208
H          H       0.40080   0.63350   0.12208
H          H       0.36650   0.76730   0.12208
C          C       0.81935   0.10607   0.41820
C          C       0.89393   0.71328   0.41820
C          C       0.28672   0.18065   0.41820
C          C       0.18065   0.89393   0.08180
C          C       0.10607   0.28672   0.08180
C          C       0.71328   0.81935   0.08180
C          C       0.84346   0.07161   0.39443
C          C       0.92839   0.77185   0.39443
C          C       0.22815   0.15654   0.39443
C          C       0.15654   0.92839   0.10557
C          C       0.07161   0.22815   0.10557
C          C       0.77185   0.84346   0.10557
C          C       0.88742   0.07356   0.48193
C          C       0.92644   0.81386   0.48193
C          C       0.18614   0.11258   0.48193
C          C       0.11258   0.92644   0.01807
C          C       0.07356   0.18614   0.01807
C          C       0.81386   0.88742   0.01807
C          C       0.90905   0.11751   0.08851
C          C       0.88249   0.79154   0.08851
C          C       0.20846   0.09095   0.08851
C          C       0.09095   0.88249   0.41149
C          C       0.11751   0.20846   0.41149
C          C       0.79154   0.90905   0.41149
C          C       0.88644   0.15410   0.10841
C          C       0.84590   0.73234   0.10841
C          C       0.26766   0.11356   0.10841
C          C       0.11356   0.84590   0.39160
C          C       0.15410   0.26766   0.39160
C          C       0.73234   0.88644   0.39160
H          H       0.21851   0.30271   0.30241
H          H       0.69729   0.91580   0.30241
H          H       0.08420   0.78149   0.30241
H          H       0.78149   0.69729   0.19759
H          H       0.30271   0.08420   0.19759
H          H       0.91580   0.21851   0.19759
H          H       0.16381   0.20283   0.27760
H          H       0.79717   0.96098   0.27760
H          H       0.03902   0.83619   0.27760
H          H       0.83619   0.79717   0.22240
H          H       0.20283   0.03902   0.22240
H          H       0.96098   0.16381   0.22240
H          H       0.10974   0.29628   0.15171
H          H       0.70372   0.81346   0.15171
H          H       0.18654   0.89026   0.15171
H          H       0.89026   0.70372   0.34830
H          H       0.29628   0.18654   0.34830
H          H       0.81346   0.10974   0.34830
H          H       0.05996   0.19321   0.13985
H          H       0.80679   0.86675   0.13985
H          H       0.13325   0.94004   0.13985
H          H       0.94004   0.80679   0.36015
H          H       0.19321   0.13325   0.36015
H          H       0.86675   0.05996   0.36015
C          C       0.30073   0.60360   0.01734
C          C       0.39640   0.69713   0.01734
C          C       0.30287   0.69927   0.01734
C          C       0.69927   0.39640   0.48265
C          C       0.60360   0.30287   0.48265
C          C       0.69713   0.30073   0.48265
O          O       0.07846   0.12634   0.43368
O          O       0.87366   0.95212   0.43368
O          O       0.04788   0.92154   0.43368
O          O       0.92154   0.87366   0.06632
O          O       0.12634   0.04788   0.06632
O          O       0.95212   0.07846   0.06632
N          N       0.99916   0.04588   0.46049
N          N       0.95412   0.95328   0.46049
N          N       0.04672   0.00084   0.46049
N          N       0.00084   0.95412   0.03952
N          N       0.04588   0.04672   0.03952
N          N       0.95328   0.99916   0.03952
C          C       0.56692   0.25418   0.09002
C          C       0.74582   0.31274   0.09002
C          C       0.68726   0.43308   0.09002
C          C       0.43308   0.74582   0.40998
C          C       0.25418   0.68726   0.40998
C          C       0.31274   0.56692   0.40998
C          C       0.50696   0.22812   0.08441
C          C       0.77188   0.27884   0.08441
C          C       0.72116   0.49304   0.08441
C          C       0.49304   0.77188   0.41559
C          C       0.22812   0.72116   0.41559
C          C       0.27884   0.50696   0.41559
C          C       0.47905   0.25107   0.00359
C          C       0.74893   0.22798   0.00359
C          C       0.77202   0.52095   0.00359
C          C       0.52095   0.74893   0.49641
C          C       0.25107   0.77202   0.49641
C          C       0.22798   0.47905   0.49641
C          C       0.51596   0.30190   0.43093
C          C       0.69810   0.21406   0.43093
C          C       0.78594   0.48404   0.43093
C          C       0.48404   0.69810   0.06907
C          C       0.30190   0.78594   0.06907
C          C       0.21406   0.51596   0.06907
C          C       0.57531   0.32813   0.43802
C          C       0.67187   0.24718   0.43802
C          C       0.75282   0.42469   0.43802
C          C       0.42469   0.67187   0.06198
C          C       0.32813   0.75282   0.06198
C          C       0.24718   0.57531   0.06198
C          C       0.41409   0.22611   0.48495
C          C       0.77389   0.18798   0.48495
C          C       0.81202   0.58591   0.48495
C          C       0.58591   0.77389   0.01504
C          C       0.22611   0.81202   0.01504
C          C       0.18798   0.41409   0.01504
N          N       0.37050   0.18210   0.04782
N          N       0.81790   0.18840   0.04782
N          N       0.81160   0.62950   0.04782
N          N       0.62950   0.81790   0.45217
N          N       0.18210   0.81160   0.45217
N          N       0.18840   0.37050   0.45217
C          C       0.30909   0.15987   0.02536
C          C       0.84013   0.14922   0.02536
C          C       0.85078   0.69091   0.02536
C          C       0.69091   0.84013   0.47463
C          C       0.15987   0.85078   0.47463
C          C       0.14922   0.30909   0.47463
H          H       0.30251   0.48627   0.38865
H          H       0.51373   0.81624   0.38865
H          H       0.18376   0.69749   0.38865
H          H       0.69749   0.51373   0.11135
H          H       0.48627   0.18376   0.11135
H          H       0.81624   0.30251   0.11135
H          H       0.35604   0.58839   0.38084
H          H       0.41161   0.76765   0.38084
H          H       0.23235   0.64396   0.38084
H          H       0.64396   0.41161   0.11916
H          H       0.58839   0.23235   0.11916
H          H       0.76765   0.35604   0.11916
H          H       0.18124   0.49422   0.16620
H          H       0.50578   0.68702   0.16620
H          H       0.31298   0.81876   0.16620
H          H       0.81876   0.50578   0.33381
H          H       0.49422   0.31298   0.33381
H          H       0.68702   0.18124   0.33381
H          H       0.23360   0.59527   0.15641
H          H       0.40473   0.63833   0.15641
H          H       0.36167   0.76640   0.15641
H          H       0.76640   0.40473   0.34359
H          H       0.59527   0.36167   0.34359
H          H       0.63833   0.23360   0.34359
C          C       0.15217   0.87552   0.07439
C          C       0.12448   0.27665   0.07439
C          C       0.72335   0.84783   0.07439
C          C       0.84783   0.12448   0.42561
C          C       0.87552   0.72335   0.42561
C          C       0.27665   0.15217   0.42561
C          C       0.12041   0.90422   0.06900
C          C       0.09578   0.21619   0.06900
C          C       0.78381   0.87959   0.06900
C          C       0.87959   0.09578   0.43100
C          C       0.90422   0.78381   0.43100
C          C       0.21619   0.12041   0.43100
C          C       0.07408   0.88805   0.47075
C          C       0.11195   0.18603   0.47075
C          C       0.81397   0.92592   0.47075
C          C       0.92592   0.11195   0.02925
C          C       0.88805   0.81397   0.02925
C          C       0.18603   0.07408   0.02925
C          C       0.06580   0.84460   0.37260
C          C       0.15540   0.22120   0.37260
C          C       0.77880   0.93420   0.37260
C          C       0.93420   0.15540   0.12740
C          C       0.84460   0.77880   0.12740
C          C       0.22120   0.06580   0.12740
C          C       0.09490   0.81464   0.38195
C          C       0.18536   0.28026   0.38195
C          C       0.71974   0.90510   0.38195
C          C       0.90510   0.18536   0.11805
C          C       0.81464   0.71974   0.11805
C          C       0.28026   0.09490   0.11805
H          H       0.81320   0.71887   0.19084
H          H       0.28113   0.09433   0.19084
H          H       0.90567   0.18680   0.19084
H          H       0.18680   0.28113   0.30916
H          H       0.71887   0.90567   0.30916
H          H       0.09433   0.81320   0.30916
H          H       0.87505   0.81970   0.15429
H          H       0.18030   0.05535   0.15429
H          H       0.94465   0.12495   0.15429
H          H       0.12495   0.18030   0.34571
H          H       0.81970   0.94465   0.34571
H          H       0.05535   0.87505   0.34571
H          H       0.89952   0.68542   0.34557
H          H       0.31458   0.21410   0.34557
H          H       0.78590   0.10048   0.34557
H          H       0.10048   0.31458   0.15443
H          H       0.68542   0.78590   0.15443
H          H       0.21410   0.89952   0.15443
H          H       0.95463   0.78376   0.29751
H          H       0.21624   0.17087   0.29751
H          H       0.82913   0.04537   0.29751
H          H       0.04537   0.21624   0.20248
H          H       0.78376   0.82913   0.20248
H          H       0.17087   0.95463   0.20248
N          N       0.33333   0.66667   0.01422
N          N       0.66667   0.33333   0.48579
N          N       0.66667   0.33333   0.02096
N          N       0.33333   0.66667   0.47904
C          C       0.70187   0.39632   0.51721
C          C       0.60368   0.30555   0.51721
C          C       0.69445   0.29813   0.51721
C          C       0.29813   0.60368   0.98279
C          C       0.39632   0.69445   0.98279
C          C       0.30555   0.70187   0.98279
O          O       0.95871   0.87279   0.93453
O          O       0.12721   0.08592   0.93453
O          O       0.91408   0.04129   0.93453
O          O       0.04129   0.12721   0.56546
O          O       0.87279   0.91408   0.56546
O          O       0.08592   0.95871   0.56546
P          P       0.00105   0.93693   0.54880
P          P       0.06307   0.06412   0.54880
P          P       0.93588   0.99895   0.54880
P          P       0.99895   0.06307   0.95120
P          P       0.93693   0.93588   0.95120
P          P       0.06412   0.00105   0.95120
C          C       0.43098   0.74892   0.94392
C          C       0.25108   0.68206   0.94392
C          C       0.31794   0.56902   0.94392
C          C       0.56902   0.25108   0.55607
C          C       0.74892   0.31794   0.55607
C          C       0.68206   0.43098   0.55607
C          C       0.49101   0.77753   0.94832
C          C       0.22247   0.71348   0.94832
C          C       0.28652   0.50899   0.94832
C          C       0.50899   0.22247   0.55168
C          C       0.77753   0.28652   0.55168
C          C       0.71348   0.49101   0.55168
C          C       0.52119   0.75694   0.52841
C          C       0.24306   0.76425   0.52841
C          C       0.23575   0.47881   0.52841
C          C       0.47881   0.24306   0.97159
C          C       0.75694   0.23575   0.97159
C          C       0.76425   0.52119   0.97159
C          C       0.48648   0.70564   0.60189
C          C       0.29436   0.78084   0.60189
C          C       0.21916   0.51352   0.60189
C          C       0.51352   0.29436   0.89810
C          C       0.70564   0.21916   0.89810
C          C       0.78084   0.48648   0.89810
C          C       0.42697   0.67686   0.59603
C          C       0.32314   0.75011   0.59603
C          C       0.24989   0.57303   0.59603
C          C       0.57303   0.32314   0.90397
C          C       0.67686   0.24989   0.90397
C          C       0.75011   0.42697   0.90397
C          C       0.58660   0.78512   0.54265
C          C       0.21488   0.80148   0.54265
C          C       0.19852   0.41340   0.54265
C          C       0.41340   0.21488   0.95735
C          C       0.78512   0.19852   0.95735
C          C       0.80148   0.58660   0.95735
N          N       0.62658   0.83074   0.97612
N          N       0.16926   0.79584   0.97612
N          N       0.20416   0.37342   0.97612
N          N       0.37342   0.16926   0.52387
N          N       0.83074   0.20416   0.52387
N          N       0.79584   0.62658   0.52387
C          C       0.68918   0.86040   0.98119
C          C       0.13960   0.82878   0.98119
C          C       0.17122   0.31082   0.98119
C          C       0.31082   0.13960   0.51881
C          C       0.86040   0.17122   0.51881
C          C       0.82878   0.68918   0.51881
H          H       0.70696   0.51745   0.64332
H          H       0.48255   0.18951   0.64332
H          H       0.81049   0.29304   0.64332
H          H       0.29304   0.48255   0.85668
H          H       0.51745   0.81049   0.85668
H          H       0.18951   0.70696   0.85668
H          H       0.64926   0.41550   0.65338
H          H       0.58450   0.23376   0.65338
H          H       0.76624   0.35074   0.65338
H          H       0.35074   0.58450   0.84662
H          H       0.41550   0.76624   0.84662
H          H       0.23376   0.64926   0.84662
H          H       0.82366   0.50149   0.86589
H          H       0.49851   0.32217   0.86589
H          H       0.67783   0.17634   0.86589
H          H       0.17634   0.49851   0.63410
H          H       0.50149   0.67783   0.63410
H          H       0.32217   0.82366   0.63410
H          H       0.76730   0.40080   0.87792
H          H       0.59920   0.36650   0.87792
H          H       0.63350   0.23270   0.87792
H          H       0.23270   0.59920   0.62208
H          H       0.40080   0.63350   0.62208
H          H       0.36650   0.76730   0.62208
C          C       0.81935   0.10607   0.91820
C          C       0.89393   0.71328   0.91820
C          C       0.28672   0.18065   0.91820
C          C       0.18065   0.89393   0.58180
C          C       0.10607   0.28672   0.58180
C          C       0.71328   0.81935   0.58180
C          C       0.84346   0.07161   0.89443
C          C       0.92839   0.77185   0.89443
C          C       0.22815   0.15654   0.89443
C          C       0.15654   0.92839   0.60557
C          C       0.07161   0.22815   0.60557
C          C       0.77185   0.84346   0.60557
C          C       0.88742   0.07356   0.98194
C          C       0.92644   0.81386   0.98194
C          C       0.18614   0.11258   0.98194
C          C       0.11258   0.92644   0.51806
C          C       0.07356   0.18614   0.51806
C          C       0.81386   0.88742   0.51806
C          C       0.90905   0.11751   0.58850
C          C       0.88249   0.79154   0.58850
C          C       0.20846   0.09095   0.58850
C          C       0.09095   0.88249   0.91149
C          C       0.11751   0.20846   0.91149
C          C       0.79154   0.90905   0.91149
C          C       0.88644   0.15410   0.60840
C          C       0.84590   0.73234   0.60840
C          C       0.26766   0.11356   0.60840
C          C       0.11356   0.84590   0.89160
C          C       0.15410   0.26766   0.89160
C          C       0.73234   0.88644   0.89160
H          H       0.21851   0.30271   0.80241
H          H       0.69729   0.91580   0.80241
H          H       0.08420   0.78149   0.80241
H          H       0.78149   0.69729   0.69759
H          H       0.30271   0.08420   0.69759
H          H       0.91580   0.21851   0.69759
H          H       0.16381   0.20283   0.77761
H          H       0.79717   0.96098   0.77761
H          H       0.03902   0.83619   0.77761
H          H       0.83619   0.79717   0.72240
H          H       0.20283   0.03902   0.72240
H          H       0.96098   0.16381   0.72240
H          H       0.10974   0.29628   0.65170
H          H       0.70372   0.81346   0.65170
H          H       0.18654   0.89026   0.65170
H          H       0.89026   0.70372   0.84830
H          H       0.29628   0.18654   0.84830
H          H       0.81346   0.10974   0.84830
H          H       0.05996   0.19321   0.63985
H          H       0.80679   0.86675   0.63985
H          H       0.13325   0.94004   0.63985
H          H       0.94004   0.80679   0.86015
H          H       0.19321   0.13325   0.86015
H          H       0.86675   0.05996   0.86015
C          C       0.30073   0.60360   0.51735
C          C       0.39640   0.69713   0.51735
C          C       0.30287   0.69927   0.51735
C          C       0.69927   0.39640   0.98265
C          C       0.60360   0.30287   0.98265
C          C       0.69713   0.30073   0.98265
O          O       0.07846   0.12634   0.93368
O          O       0.87366   0.95212   0.93368
O          O       0.04788   0.92154   0.93368
O          O       0.92154   0.87366   0.56632
O          O       0.12634   0.04788   0.56632
O          O       0.95212   0.07846   0.56632
N          N       0.99916   0.04588   0.96049
N          N       0.95412   0.95328   0.96049
N          N       0.04672   0.00084   0.96049
N          N       0.00084   0.95412   0.53951
N          N       0.04588   0.04672   0.53951
N          N       0.95328   0.99916   0.53951
C          C       0.56692   0.25418   0.59002
C          C       0.74582   0.31274   0.59002
C          C       0.68726   0.43308   0.59002
C          C       0.43308   0.74582   0.90998
C          C       0.25418   0.68726   0.90998
C          C       0.31274   0.56692   0.90998
C          C       0.50696   0.22812   0.58441
C          C       0.77188   0.27884   0.58441
C          C       0.72116   0.49304   0.58441
C          C       0.49304   0.77188   0.91559
C          C       0.22812   0.72116   0.91559
C          C       0.27884   0.50696   0.91559
C          C       0.47905   0.25107   0.50359
C          C       0.74893   0.22798   0.50359
C          C       0.77202   0.52095   0.50359
C          C       0.52095   0.74893   0.99641
C          C       0.25107   0.77202   0.99641
C          C       0.22798   0.47905   0.99641
C          C       0.51596   0.30190   0.93093
C          C       0.69810   0.21406   0.93093
C          C       0.78594   0.48404   0.93093
C          C       0.48404   0.69810   0.56907
C          C       0.30190   0.78594   0.56907
C          C       0.21406   0.51596   0.56907
C          C       0.57531   0.32813   0.93802
C          C       0.67187   0.24718   0.93802
C          C       0.75282   0.42469   0.93802
C          C       0.42469   0.67187   0.56198
C          C       0.32813   0.75282   0.56198
C          C       0.24718   0.57531   0.56198
C          C       0.41409   0.22611   0.98496
C          C       0.77389   0.18798   0.98496
C          C       0.81202   0.58591   0.98496
C          C       0.58591   0.77389   0.51504
C          C       0.22611   0.81202   0.51504
C          C       0.18798   0.41409   0.51504
N          N       0.37050   0.18210   0.54783
N          N       0.81790   0.18840   0.54783
N          N       0.81160   0.62950   0.54783
N          N       0.62950   0.81790   0.95218
N          N       0.18210   0.81160   0.95218
N          N       0.18840   0.37050   0.95218
C          C       0.30909   0.15987   0.52536
C          C       0.84013   0.14922   0.52536
C          C       0.85078   0.69091   0.52536
C          C       0.69091   0.84013   0.97463
C          C       0.15987   0.85078   0.97463
C          C       0.14922   0.30909   0.97463
H          H       0.30251   0.48627   0.88865
H          H       0.51373   0.81624   0.88865
H          H       0.18376   0.69749   0.88865
H          H       0.69749   0.51373   0.61135
H          H       0.48627   0.18376   0.61135
H          H       0.81624   0.30251   0.61135
H          H       0.35604   0.58839   0.88084
H          H       0.41161   0.76765   0.88084
H          H       0.23235   0.64396   0.88084
H          H       0.64396   0.41161   0.61916
H          H       0.58839   0.23235   0.61916
H          H       0.76765   0.35604   0.61916
H          H       0.18124   0.49422   0.66619
H          H       0.50578   0.68702   0.66619
H          H       0.31298   0.81876   0.66619
H          H       0.81876   0.50578   0.83381
H          H       0.49422   0.31298   0.83381
H          H       0.68702   0.18124   0.83381
H          H       0.23360   0.59527   0.65641
H          H       0.40473   0.63833   0.65641
H          H       0.36167   0.76640   0.65641
H          H       0.76640   0.40473   0.84359
H          H       0.59527   0.36167   0.84359
H          H       0.63833   0.23360   0.84359
C          C       0.15217   0.87552   0.57439
C          C       0.12448   0.27665   0.57439
C          C       0.72335   0.84783   0.57439
C          C       0.84783   0.12448   0.92562
C          C       0.87552   0.72335   0.92562
C          C       0.27665   0.15217   0.92562
C          C       0.12041   0.90422   0.56900
C          C       0.09578   0.21619   0.56900
C          C       0.78381   0.87959   0.56900
C          C       0.87959   0.09578   0.93100
C          C       0.90422   0.78381   0.93100
C          C       0.21619   0.12041   0.93100
C          C       0.07408   0.88805   0.97075
C          C       0.11195   0.18603   0.97075
C          C       0.81397   0.92592   0.97075
C          C       0.92592   0.11195   0.52926
C          C       0.88805   0.81397   0.52926
C          C       0.18603   0.07408   0.52926
C          C       0.06580   0.84460   0.87260
C          C       0.15540   0.22120   0.87260
C          C       0.77880   0.93420   0.87260
C          C       0.93420   0.15540   0.62740
C          C       0.84460   0.77880   0.62740
C          C       0.22120   0.06580   0.62740
C          C       0.09490   0.81464   0.88194
C          C       0.18536   0.28026   0.88194
C          C       0.71974   0.90510   0.88194
C          C       0.90510   0.18536   0.61806
C          C       0.81464   0.71974   0.61806
C          C       0.28026   0.09490   0.61806
H          H       0.81320   0.71887   0.69084
H          H       0.28113   0.09433   0.69084
H          H       0.90567   0.18680   0.69084
H          H       0.18680   0.28113   0.80916
H          H       0.71887   0.90567   0.80916
H          H       0.09433   0.81320   0.80916
H          H       0.87505   0.81970   0.65429
H          H       0.18030   0.05535   0.65429
H          H       0.94465   0.12495   0.65429
H          H       0.12495   0.18030   0.84571
H          H       0.81970   0.94465   0.84571
H          H       0.05535   0.87505   0.84571
H          H       0.89952   0.68542   0.84557
H          H       0.31458   0.21410   0.84557
H          H       0.78590   0.10048   0.84557
H          H       0.10048   0.31458   0.65442
H          H       0.68542   0.78590   0.65442
H          H       0.21410   0.89952   0.65442
H          H       0.95463   0.78376   0.79751
H          H       0.21624   0.17087   0.79751
H          H       0.82913   0.04537   0.79751
H          H       0.04537   0.21624   0.70249
H          H       0.78376   0.82913   0.70249
H          H       0.17087   0.95463   0.70249
N          N       0.33333   0.66667   0.51421
N          N       0.66667   0.33333   0.98579
N          N       0.66667   0.33333   0.52096
N          N       0.33333   0.66667   0.97904
