data_crystal

_cell_length_a    23.11460
_cell_length_b    23.11460
_cell_length_c    7.07000
_cell_angle_alpha 90.00000
_cell_angle_beta  90.00000
_cell_angle_gamma 120.00000

_space_group_name_Hall 'P 1'
_space_group_name_H-M_alt 'P 1'

loop_
_symmetry_equiv_pos_as_xyz
 'x,y,z'

loop_
_atom_site_label
_atom_site_type_symbol
_atom_site_fract_x
_atom_site_fract_y
_atom_site_fract_z
N          N       0.30528   0.70604   0.25000
N          N       0.29396   0.59924   0.25000
N          N       0.40076   0.69472   0.25000
C          C       0.26575   0.63862   0.25000
C          C       0.36138   0.62713   0.25000
C          C       0.37287   0.73425   0.25000
C          C       0.39072   0.58373   0.25000
C          C       0.41627   0.80699   0.25000
C          C       0.19301   0.60928   0.25000
C          C       0.45649   0.60830   0.25000
C          C       0.39170   0.84819   0.25000
C          C       0.15181   0.54351   0.25000
C          C       0.48670   0.56553   0.25000
C          C       0.43447   0.92117   0.25000
C          C       0.07883   0.51330   0.25000
C          C       0.55636   0.59568   0.25000
C          C       0.40432   0.96068   0.25000
C          C       0.03932   0.44364   0.25000
C          C       0.58679   0.55647   0.25000
C          C       0.44353   0.03032   0.25000
C          C       0.96968   0.41321   0.25000
C          C       0.54760   0.48684   0.25000
C          C       0.51316   0.06076   0.25000
C          C       0.93924   0.45240   0.25000
C          C       0.47797   0.45637   0.25000
C          C       0.54363   0.02160   0.25000
C          C       0.97840   0.52203   0.25000
C          C       0.44754   0.49556   0.25000
C          C       0.50444   0.95198   0.25000
C          C       0.04802   0.55246   0.25000
C          C       0.57885   0.44663   0.25000
C          C       0.55337   0.13222   0.25000
C          C       0.86778   0.42115   0.25000
C          C       0.60508   0.41282   0.25000
C          C       0.58718   0.19226   0.25000
C          C       0.80774   0.39492   0.25000
C          C       0.63626   0.37257   0.25000
C          C       0.62743   0.26369   0.25000
C          C       0.73631   0.36374   0.25000
C          C       0.70591   0.40299   0.25000
C          C       0.59701   0.30292   0.25000
C          C       0.69708   0.29409   0.25000
H          H       0.35695   0.52713   0.25000
H          H       0.47287   0.82982   0.25000
H          H       0.17018   0.64305   0.25000
H          H       0.49179   0.66465   0.25000
H          H       0.33535   0.82714   0.25000
H          H       0.17286   0.50821   0.25000
H          H       0.58834   0.65248   0.25000
H          H       0.34752   0.93586   0.25000
H          H       0.06414   0.41166   0.25000
H          H       0.64359   0.58129   0.25000
H          H       0.41871   0.06230   0.25000
H          H       0.93770   0.35641   0.25000
H          H       0.44603   0.39957   0.25000
H          H       0.60043   0.04646   0.25000
H          H       0.95354   0.55397   0.25000
H          H       0.39074   0.47073   0.25000
H          H       0.52927   0.92001   0.25000
H          H       0.07999   0.60926   0.25000
H          H       0.73792   0.45978   0.25000
H          H       0.54022   0.27814   0.25000
H          H       0.72186   0.26208   0.25000
N          N       0.30528   0.70604   0.75000
N          N       0.29396   0.59924   0.75000
N          N       0.40076   0.69472   0.75000
C          C       0.26575   0.63862   0.75000
C          C       0.36138   0.62713   0.75000
C          C       0.37287   0.73425   0.75000
C          C       0.39072   0.58373   0.75000
C          C       0.41627   0.80699   0.75000
C          C       0.19301   0.60928   0.75000
C          C       0.45649   0.60830   0.75000
C          C       0.39170   0.84819   0.75000
C          C       0.15181   0.54351   0.75000
C          C       0.48670   0.56553   0.75000
C          C       0.43447   0.92117   0.75000
C          C       0.07883   0.51330   0.75000
C          C       0.55636   0.59568   0.75000
C          C       0.40432   0.96068   0.75000
C          C       0.03932   0.44364   0.75000
C          C       0.58679   0.55647   0.75000
C          C       0.44353   0.03032   0.75000
C          C       0.96968   0.41321   0.75000
C          C       0.54760   0.48684   0.75000
C          C       0.51316   0.06076   0.75000
C          C       0.93924   0.45240   0.75000
C          C       0.47797   0.45637   0.75000
C          C       0.54363   0.02160   0.75000
C          C       0.97840   0.52203   0.75000
C          C       0.44754   0.49556   0.75000
C          C       0.50444   0.95198   0.75000
C          C       0.04802   0.55246   0.75000
C          C       0.57885   0.44663   0.75000
C          C       0.55337   0.13222   0.75000
C          C       0.86778   0.42115   0.75000
C          C       0.60508   0.41282   0.75000
C          C       0.58718   0.19226   0.75000
C          C       0.80774   0.39492   0.75000
C          C       0.63626   0.37257   0.75000
C          C       0.62743   0.26369   0.75000
C          C       0.73631   0.36374   0.75000
C          C       0.70591   0.40299   0.75000
C          C       0.59701   0.30292   0.75000
C          C       0.69708   0.29409   0.75000
H          H       0.35695   0.52713   0.75000
H          H       0.47287   0.82982   0.75000
H          H       0.17018   0.64305   0.75000
H          H       0.49179   0.66465   0.75000
H          H       0.33535   0.82714   0.75000
H          H       0.17286   0.50821   0.75000
H          H       0.58834   0.65248   0.75000
H          H       0.34752   0.93586   0.75000
H          H       0.06414   0.41166   0.75000
H          H       0.64359   0.58129   0.75000
H          H       0.41871   0.06230   0.75000
H          H       0.93770   0.35641   0.75000
H          H       0.44603   0.39957   0.75000
H          H       0.60043   0.04646   0.75000
H          H       0.95354   0.55397   0.75000
H          H       0.39074   0.47073   0.75000
H          H       0.52927   0.92001   0.75000
H          H       0.07999   0.60926   0.75000
H          H       0.73792   0.45978   0.75000
H          H       0.54022   0.27814   0.75000
H          H       0.72186   0.26208   0.75000
