data_crystal

_cell_length_a    34.37670
_cell_length_b    34.37670
_cell_length_c    7.07100
_cell_angle_alpha 90.00000
_cell_angle_beta  90.00000
_cell_angle_gamma 120.00000

_space_group_name_Hall 'P 1'
_space_group_name_H-M_alt 'P 1'

loop_
_symmetry_equiv_pos_as_xyz
 'x,y,z'

loop_
_atom_site_label
_atom_site_type_symbol
_atom_site_fract_x
_atom_site_fract_y
_atom_site_fract_z
N          N       0.68447   0.30593   0.25000
N          N       0.69407   0.37854   0.25000
N          N       0.62146   0.31553   0.25000
N          N       0.31553   0.69407   0.25000
N          N       0.30593   0.62146   0.25000
N          N       0.37854   0.68447   0.25000
C          C       0.71198   0.35113   0.25000
C          C       0.64887   0.36085   0.25000
C          C       0.63915   0.28802   0.25000
C          C       0.28802   0.64887   0.25000
C          C       0.35113   0.63915   0.25000
C          C       0.36085   0.71198   0.25000
C          C       0.60897   0.23926   0.25000
C          C       0.76074   0.36971   0.25000
C          C       0.63029   0.39103   0.25000
C          C       0.39103   0.76074   0.25000
C          C       0.23926   0.63029   0.25000
C          C       0.36971   0.60897   0.25000
C          C       0.62443   0.21068   0.25000
C          C       0.78932   0.41375   0.25000
C          C       0.58625   0.37557   0.25000
C          C       0.37557   0.78932   0.25000
C          C       0.21068   0.58625   0.25000
C          C       0.41375   0.62443   0.25000
C          C       0.56707   0.40532   0.25000
C          C       0.59468   0.16175   0.25000
C          C       0.83825   0.43293   0.25000
C          C       0.43293   0.59468   0.25000
C          C       0.40532   0.83825   0.25000
C          C       0.16175   0.56707   0.25000
C          C       0.59438   0.45227   0.25000
C          C       0.54773   0.14211   0.25000
C          C       0.85789   0.40562   0.25000
C          C       0.40562   0.54773   0.25000
C          C       0.45227   0.85789   0.25000
C          C       0.14211   0.59438   0.25000
C          C       0.57499   0.47960   0.25000
C          C       0.52040   0.09539   0.25000
C          C       0.90461   0.42501   0.25000
C          C       0.42501   0.52040   0.25000
C          C       0.47960   0.90461   0.25000
C          C       0.09539   0.57499   0.25000
C          C       0.52827   0.46018   0.25000
C          C       0.53982   0.06809   0.25000
C          C       0.93191   0.47173   0.25000
C          C       0.47173   0.53982   0.25000
C          C       0.46018   0.93191   0.25000
C          C       0.06809   0.52827   0.25000
C          C       0.50095   0.41346   0.25000
C          C       0.58654   0.08749   0.25000
C          C       0.91251   0.49905   0.25000
C          C       0.49905   0.58654   0.25000
C          C       0.41346   0.91251   0.25000
C          C       0.08749   0.50095   0.25000
C          C       0.52034   0.38613   0.25000
C          C       0.61387   0.13421   0.25000
C          C       0.86579   0.47966   0.25000
C          C       0.47966   0.61387   0.25000
C          C       0.38613   0.86579   0.25000
C          C       0.13421   0.52034   0.25000
C          C       0.50836   0.48821   0.25000
C          C       0.51179   0.02015   0.25000
C          C       0.97985   0.49164   0.25000
C          C       0.49164   0.51179   0.25000
C          C       0.48821   0.97985   0.25000
C          C       0.02015   0.50836   0.25000
H          H       0.57104   0.22481   0.25000
H          H       0.77519   0.34623   0.25000
H          H       0.65377   0.42896   0.25000
H          H       0.42896   0.77519   0.25000
H          H       0.22481   0.65377   0.25000
H          H       0.34623   0.57104   0.25000
H          H       0.66217   0.22393   0.25000
H          H       0.77607   0.43824   0.25000
H          H       0.56176   0.33783   0.25000
H          H       0.33783   0.77607   0.25000
H          H       0.22393   0.56176   0.25000
H          H       0.43824   0.66217   0.25000
H          H       0.63249   0.46809   0.25000
H          H       0.53191   0.16440   0.25000
H          H       0.83560   0.36751   0.25000
H          H       0.36751   0.53191   0.25000
H          H       0.46809   0.83560   0.25000
H          H       0.16440   0.63249   0.25000
H          H       0.59728   0.51771   0.25000
H          H       0.48229   0.07957   0.25000
H          H       0.92043   0.40272   0.25000
H          H       0.40272   0.48229   0.25000
H          H       0.51771   0.92043   0.25000
H          H       0.07957   0.59728   0.25000
H          H       0.46284   0.39764   0.25000
H          H       0.60236   0.06520   0.25000
H          H       0.93480   0.53716   0.25000
H          H       0.53716   0.60236   0.25000
H          H       0.39764   0.93480   0.25000
H          H       0.06520   0.46284   0.25000
H          H       0.49804   0.34802   0.25000
H          H       0.65198   0.15002   0.25000
H          H       0.84998   0.50196   0.25000
H          H       0.50196   0.65198   0.25000
H          H       0.34802   0.84998   0.25000
H          H       0.15002   0.49804   0.25000
N          N       0.68447   0.30593   0.75000
N          N       0.69407   0.37854   0.75000
N          N       0.62146   0.31553   0.75000
N          N       0.31553   0.69407   0.75000
N          N       0.30593   0.62146   0.75000
N          N       0.37854   0.68447   0.75000
C          C       0.71198   0.35113   0.75000
C          C       0.64887   0.36085   0.75000
C          C       0.63915   0.28802   0.75000
C          C       0.28802   0.64887   0.75000
C          C       0.35113   0.63915   0.75000
C          C       0.36085   0.71198   0.75000
C          C       0.60897   0.23926   0.75000
C          C       0.76074   0.36971   0.75000
C          C       0.63029   0.39103   0.75000
C          C       0.39103   0.76074   0.75000
C          C       0.23926   0.63029   0.75000
C          C       0.36971   0.60897   0.75000
C          C       0.62443   0.21068   0.75000
C          C       0.78932   0.41375   0.75000
C          C       0.58625   0.37557   0.75000
C          C       0.37557   0.78932   0.75000
C          C       0.21068   0.58625   0.75000
C          C       0.41375   0.62443   0.75000
C          C       0.56707   0.40532   0.75000
C          C       0.59468   0.16175   0.75000
C          C       0.83825   0.43293   0.75000
C          C       0.43293   0.59468   0.75000
C          C       0.40532   0.83825   0.75000
C          C       0.16175   0.56707   0.75000
C          C       0.59438   0.45227   0.75000
C          C       0.54773   0.14211   0.75000
C          C       0.85789   0.40562   0.75000
C          C       0.40562   0.54773   0.75000
C          C       0.45227   0.85789   0.75000
C          C       0.14211   0.59438   0.75000
C          C       0.57499   0.47960   0.75000
C          C       0.52040   0.09539   0.75000
C          C       0.90461   0.42501   0.75000
C          C       0.42501   0.52040   0.75000
C          C       0.47960   0.90461   0.75000
C          C       0.09539   0.57499   0.75000
C          C       0.52827   0.46018   0.75000
C          C       0.53982   0.06809   0.75000
C          C       0.93191   0.47173   0.75000
C          C       0.47173   0.53982   0.75000
C          C       0.46018   0.93191   0.75000
C          C       0.06809   0.52827   0.75000
C          C       0.50095   0.41346   0.75000
C          C       0.58654   0.08749   0.75000
C          C       0.91251   0.49905   0.75000
C          C       0.49905   0.58654   0.75000
C          C       0.41346   0.91251   0.75000
C          C       0.08749   0.50095   0.75000
C          C       0.52034   0.38613   0.75000
C          C       0.61387   0.13421   0.75000
C          C       0.86579   0.47966   0.75000
C          C       0.47966   0.61387   0.75000
C          C       0.38613   0.86579   0.75000
C          C       0.13421   0.52034   0.75000
C          C       0.50836   0.48821   0.75000
C          C       0.51179   0.02015   0.75000
C          C       0.97985   0.49164   0.75000
C          C       0.49164   0.51179   0.75000
C          C       0.48821   0.97985   0.75000
C          C       0.02015   0.50836   0.75000
H          H       0.57104   0.22481   0.75000
H          H       0.77519   0.34623   0.75000
H          H       0.65377   0.42896   0.75000
H          H       0.42896   0.77519   0.75000
H          H       0.22481   0.65377   0.75000
H          H       0.34623   0.57104   0.75000
H          H       0.66217   0.22393   0.75000
H          H       0.77607   0.43824   0.75000
H          H       0.56176   0.33783   0.75000
H          H       0.33783   0.77607   0.75000
H          H       0.22393   0.56176   0.75000
H          H       0.43824   0.66217   0.75000
H          H       0.63249   0.46809   0.75000
H          H       0.53191   0.16440   0.75000
H          H       0.83560   0.36751   0.75000
H          H       0.36751   0.53191   0.75000
H          H       0.46809   0.83560   0.75000
H          H       0.16440   0.63249   0.75000
H          H       0.59728   0.51771   0.75000
H          H       0.48229   0.07957   0.75000
H          H       0.92043   0.40272   0.75000
H          H       0.40272   0.48229   0.75000
H          H       0.51771   0.92043   0.75000
H          H       0.07957   0.59728   0.75000
H          H       0.46284   0.39764   0.75000
H          H       0.60236   0.06520   0.75000
H          H       0.93480   0.53716   0.75000
H          H       0.53716   0.60236   0.75000
H          H       0.39764   0.93480   0.75000
H          H       0.06520   0.46284   0.75000
H          H       0.49804   0.34802   0.75000
H          H       0.65198   0.15002   0.75000
H          H       0.84998   0.50196   0.75000
H          H       0.50196   0.65198   0.75000
H          H       0.34802   0.84998   0.75000
H          H       0.15002   0.49804   0.75000
