data_crystal

_cell_length_a    30.06800
_cell_length_b    30.06800
_cell_length_c    7.10760
_cell_angle_alpha 90.00000
_cell_angle_beta  90.00000
_cell_angle_gamma 120.00000

_space_group_name_Hall 'P 1'
_space_group_name_H-M_alt 'P 1'

loop_
_symmetry_equiv_pos_as_xyz
 'x,y,z'

loop_
_atom_site_label
_atom_site_type_symbol
_atom_site_fract_x
_atom_site_fract_y
_atom_site_fract_z
C          C       0.31589   0.70187   0.25000
C          C       0.29813   0.61402   0.25000
C          C       0.38598   0.68411   0.25000
C          C       0.68411   0.29813   0.25000
C          C       0.70187   0.38598   0.25000
C          C       0.61402   0.31589   0.25000
C          C       0.27917   0.64872   0.25000
C          C       0.35128   0.63045   0.25000
C          C       0.36955   0.72083   0.25000
C          C       0.72083   0.35128   0.25000
C          C       0.64872   0.36955   0.25000
C          C       0.63045   0.27917   0.25000
O          O       0.29945   0.73273   0.25000
O          O       0.26727   0.56672   0.25000
O          O       0.43328   0.70055   0.25000
O          O       0.70055   0.26727   0.25000
O          O       0.73273   0.43328   0.25000
O          O       0.56672   0.29945   0.25000
C          C       0.22604   0.63299   0.25000
C          C       0.36701   0.59305   0.25000
C          C       0.40695   0.77396   0.25000
C          C       0.77396   0.36701   0.25000
C          C       0.63299   0.40695   0.25000
C          C       0.59305   0.22604   0.25000
N          N       0.18779   0.58337   0.25000
N          N       0.41663   0.60442   0.25000
N          N       0.39558   0.81221   0.25000
N          N       0.81221   0.41663   0.25000
N          N       0.58337   0.39558   0.25000
N          N       0.60442   0.18779   0.25000
H          H       0.21605   0.66082   0.25000
H          H       0.33918   0.55523   0.25000
H          H       0.44477   0.78395   0.25000
H          H       0.78395   0.33918   0.25000
H          H       0.66082   0.44477   0.25000
H          H       0.55523   0.21605   0.25000
H          H       0.19982   0.55894   0.25000
H          H       0.44106   0.64088   0.25000
H          H       0.35912   0.80018   0.25000
H          H       0.80018   0.44106   0.25000
H          H       0.55894   0.35912   0.25000
H          H       0.64088   0.19982   0.25000
C          C       0.10666   0.50935   0.25000
C          C       0.49065   0.59731   0.25000
C          C       0.40269   0.89334   0.25000
C          C       0.89334   0.49065   0.25000
C          C       0.50935   0.40269   0.25000
C          C       0.59731   0.10666   0.25000
C          C       0.05244   0.48343   0.25000
C          C       0.51657   0.56901   0.25000
C          C       0.43099   0.94756   0.25000
C          C       0.94756   0.51657   0.25000
C          C       0.48343   0.43099   0.25000
C          C       0.56901   0.05244   0.25000
C          C       0.02721   0.51261   0.25000
C          C       0.48739   0.51460   0.25000
C          C       0.48540   0.97279   0.25000
C          C       0.97279   0.48739   0.25000
C          C       0.51261   0.48540   0.25000
C          C       0.51460   0.02721   0.25000
C          C       0.05642   0.56705   0.25000
C          C       0.43295   0.48937   0.25000
C          C       0.51063   0.94358   0.25000
C          C       0.94358   0.43295   0.25000
C          C       0.56705   0.51063   0.25000
C          C       0.48937   0.05642   0.25000
C          C       0.11056   0.59144   0.25000
C          C       0.40856   0.51912   0.25000
C          C       0.48088   0.88944   0.25000
C          C       0.88944   0.40856   0.25000
C          C       0.59144   0.48088   0.25000
C          C       0.51912   0.11056   0.25000
C          C       0.13622   0.56311   0.25000
C          C       0.43689   0.57311   0.25000
C          C       0.42689   0.86378   0.25000
C          C       0.86378   0.43689   0.25000
C          C       0.56311   0.42689   0.25000
C          C       0.57311   0.13622   0.25000
C          C       0.02307   0.42925   0.25000
C          C       0.57075   0.59382   0.25000
C          C       0.40618   0.97693   0.25000
C          C       0.97693   0.57075   0.25000
C          C       0.42925   0.40618   0.25000
C          C       0.59382   0.02307   0.25000
C          C       0.03092   0.59577   0.25000
C          C       0.40423   0.43515   0.25000
C          C       0.56485   0.96908   0.25000
C          C       0.96908   0.40423   0.25000
C          C       0.59577   0.56485   0.25000
C          C       0.43515   0.03092   0.25000
O          O       0.04535   0.40352   0.25000
O          O       0.59648   0.64183   0.25000
O          O       0.35817   0.95465   0.25000
O          O       0.95465   0.59648   0.25000
O          O       0.40352   0.35817   0.25000
O          O       0.64183   0.04535   0.25000
O          O       0.05669   0.64378   0.25000
O          O       0.35622   0.41291   0.25000
O          O       0.58709   0.94331   0.25000
O          O       0.94331   0.35622   0.25000
O          O       0.64378   0.58709   0.25000
O          O       0.41291   0.05669   0.25000
H          H       0.12516   0.48860   0.25000
H          H       0.51140   0.63656   0.25000
H          H       0.36344   0.87484   0.25000
H          H       0.87484   0.51140   0.25000
H          H       0.48860   0.36344   0.25000
H          H       0.63656   0.12516   0.25000
H          H       0.13143   0.63046   0.25000
H          H       0.36954   0.50097   0.25000
H          H       0.49903   0.86857   0.25000
H          H       0.86857   0.36954   0.25000
H          H       0.63046   0.49903   0.25000
H          H       0.50097   0.13143   0.25000
C          C       0.31589   0.70187   0.75000
C          C       0.29813   0.61402   0.75000
C          C       0.38598   0.68411   0.75000
C          C       0.68411   0.29813   0.75000
C          C       0.70187   0.38598   0.75000
C          C       0.61402   0.31589   0.75000
C          C       0.27917   0.64872   0.75000
C          C       0.35128   0.63045   0.75000
C          C       0.36955   0.72083   0.75000
C          C       0.72083   0.35128   0.75000
C          C       0.64872   0.36955   0.75000
C          C       0.63045   0.27917   0.75000
O          O       0.29945   0.73273   0.75000
O          O       0.26727   0.56672   0.75000
O          O       0.43328   0.70055   0.75000
O          O       0.70055   0.26727   0.75000
O          O       0.73273   0.43328   0.75000
O          O       0.56672   0.29945   0.75000
C          C       0.22604   0.63299   0.75000
C          C       0.36701   0.59305   0.75000
C          C       0.40695   0.77396   0.75000
C          C       0.77396   0.36701   0.75000
C          C       0.63299   0.40695   0.75000
C          C       0.59305   0.22604   0.75000
N          N       0.18779   0.58337   0.75000
N          N       0.41663   0.60442   0.75000
N          N       0.39558   0.81221   0.75000
N          N       0.81221   0.41663   0.75000
N          N       0.58337   0.39558   0.75000
N          N       0.60442   0.18779   0.75000
H          H       0.21605   0.66082   0.75000
H          H       0.33918   0.55523   0.75000
H          H       0.44477   0.78395   0.75000
H          H       0.78395   0.33918   0.75000
H          H       0.66082   0.44477   0.75000
H          H       0.55523   0.21605   0.75000
H          H       0.19982   0.55894   0.75000
H          H       0.44106   0.64088   0.75000
H          H       0.35912   0.80018   0.75000
H          H       0.80018   0.44106   0.75000
H          H       0.55894   0.35912   0.75000
H          H       0.64088   0.19982   0.75000
C          C       0.10666   0.50935   0.75000
C          C       0.49065   0.59731   0.75000
C          C       0.40269   0.89334   0.75000
C          C       0.89334   0.49065   0.75000
C          C       0.50935   0.40269   0.75000
C          C       0.59731   0.10666   0.75000
C          C       0.05244   0.48343   0.75000
C          C       0.51657   0.56901   0.75000
C          C       0.43099   0.94756   0.75000
C          C       0.94756   0.51657   0.75000
C          C       0.48343   0.43099   0.75000
C          C       0.56901   0.05244   0.75000
C          C       0.02721   0.51261   0.75000
C          C       0.48739   0.51460   0.75000
C          C       0.48540   0.97279   0.75000
C          C       0.97279   0.48739   0.75000
C          C       0.51261   0.48540   0.75000
C          C       0.51460   0.02721   0.75000
C          C       0.05642   0.56705   0.75000
C          C       0.43295   0.48937   0.75000
C          C       0.51063   0.94358   0.75000
C          C       0.94358   0.43295   0.75000
C          C       0.56705   0.51063   0.75000
C          C       0.48937   0.05642   0.75000
C          C       0.11056   0.59144   0.75000
C          C       0.40856   0.51912   0.75000
C          C       0.48088   0.88944   0.75000
C          C       0.88944   0.40856   0.75000
C          C       0.59144   0.48088   0.75000
C          C       0.51912   0.11056   0.75000
C          C       0.13622   0.56311   0.75000
C          C       0.43689   0.57311   0.75000
C          C       0.42689   0.86378   0.75000
C          C       0.86378   0.43689   0.75000
C          C       0.56311   0.42689   0.75000
C          C       0.57311   0.13622   0.75000
C          C       0.02307   0.42925   0.75000
C          C       0.57075   0.59382   0.75000
C          C       0.40618   0.97693   0.75000
C          C       0.97693   0.57075   0.75000
C          C       0.42925   0.40618   0.75000
C          C       0.59382   0.02307   0.75000
C          C       0.03092   0.59577   0.75000
C          C       0.40423   0.43515   0.75000
C          C       0.56485   0.96908   0.75000
C          C       0.96908   0.40423   0.75000
C          C       0.59577   0.56485   0.75000
C          C       0.43515   0.03092   0.75000
O          O       0.04535   0.40352   0.75000
O          O       0.59648   0.64183   0.75000
O          O       0.35817   0.95465   0.75000
O          O       0.95465   0.59648   0.75000
O          O       0.40352   0.35817   0.75000
O          O       0.64183   0.04535   0.75000
O          O       0.05669   0.64378   0.75000
O          O       0.35622   0.41291   0.75000
O          O       0.58709   0.94331   0.75000
O          O       0.94331   0.35622   0.75000
O          O       0.64378   0.58709   0.75000
O          O       0.41291   0.05669   0.75000
H          H       0.12516   0.48860   0.75000
H          H       0.51140   0.63656   0.75000
H          H       0.36344   0.87484   0.75000
H          H       0.87484   0.51140   0.75000
H          H       0.48860   0.36344   0.75000
H          H       0.63656   0.12516   0.75000
H          H       0.13143   0.63046   0.75000
H          H       0.36954   0.50097   0.75000
H          H       0.49903   0.86857   0.75000
H          H       0.86857   0.36954   0.75000
H          H       0.63046   0.49903   0.75000
H          H       0.50097   0.13143   0.75000
