data_crystal

_cell_length_a    21.60310
_cell_length_b    21.60310
_cell_length_c    6.24440
_cell_angle_alpha 90.00000
_cell_angle_beta  90.00000
_cell_angle_gamma 120.00000

_space_group_name_Hall 'P 1'
_space_group_name_H-M_alt 'P 1'

loop_
_symmetry_equiv_pos_as_xyz
 'x,y,z'

loop_
_atom_site_label
_atom_site_type_symbol
_atom_site_fract_x
_atom_site_fract_y
_atom_site_fract_z
C          C       0.07121   0.03879   0.00000
C          C       0.96121   0.03242   0.00000
C          C       0.96758   0.92879   0.00000
C          C       0.03173   0.06966   0.00000
C          C       0.93034   0.96207   0.00000
C          C       0.03793   0.96827   0.00000
C          C       0.14682   0.07481   0.00000
C          C       0.92519   0.07201   0.00000
C          C       0.92799   0.85318   0.00000
C          C       0.19312   0.14146   0.00000
C          C       0.85854   0.05166   0.00000
C          C       0.94834   0.80688   0.00000
C          C       0.26795   0.16690   0.00000
C          C       0.83310   0.10105   0.00000
C          C       0.89895   0.73205   0.00000
C          C       0.29546   0.12389   0.00000
C          C       0.87611   0.17157   0.00000
C          C       0.82843   0.70454   0.00000
C          C       0.36484   0.14978   0.00000
C          C       0.85022   0.21506   0.00000
C          C       0.78494   0.63516   0.00000
C          C       0.40926   0.21867   0.00000
C          C       0.78133   0.19059   0.00000
C          C       0.80941   0.59074   0.00000
C          C       0.38322   0.26225   0.00000
C          C       0.73775   0.12097   0.00000
C          C       0.87903   0.61678   0.00000
C          C       0.31391   0.23679   0.00000
C          C       0.76321   0.07712   0.00000
C          C       0.92288   0.68609   0.00000
N          N       0.47987   0.24140   0.00000
N          N       0.75860   0.23847   0.00000
N          N       0.76153   0.52013   0.00000
C          C       0.52903   0.30307   0.00000
C          C       0.69693   0.22596   0.00000
C          C       0.77404   0.47097   0.00000
C          C       0.17325   0.19184   0.00000
C          C       0.80816   0.98141   0.00000
C          C       0.01859   0.82675   0.00000
C          C       0.15865   0.23322   0.00000
C          C       0.76678   0.92543   0.00000
C          C       0.07457   0.84135   0.00000
C          C       0.59933   0.31805   0.00000
C          C       0.68195   0.28128   0.00000
C          C       0.71872   0.40067   0.00000
N          N       0.61503   0.26645   0.00000
N          N       0.73355   0.34858   0.00000
N          N       0.65142   0.38497   0.00000
H          H       0.05417   0.12287   0.00000
H          H       0.87713   0.93130   0.00000
H          H       0.06870   0.94583   0.00000
H          H       0.16540   0.04043   0.00000
H          H       0.95957   0.12497   0.00000
H          H       0.87503   0.83460   0.00000
H          H       0.26529   0.07010   0.00000
H          H       0.92990   0.19519   0.00000
H          H       0.80481   0.73471   0.00000
H          H       0.38463   0.11593   0.00000
H          H       0.88407   0.26870   0.00000
H          H       0.73130   0.61537   0.00000
H          H       0.41549   0.31593   0.00000
H          H       0.68407   0.09956   0.00000
H          H       0.90044   0.58451   0.00000
H          H       0.29683   0.27285   0.00000
H          H       0.72715   0.02398   0.00000
H          H       0.97602   0.70317   0.00000
H          H       0.51989   0.34470   0.00000
H          H       0.65530   0.17519   0.00000
H          H       0.82481   0.48011   0.00000
H          H       0.57501   0.21466   0.00000
H          H       0.78534   0.36035   0.00000
H          H       0.63965   0.42499   0.00000
C          C       0.07121   0.03879   0.50000
C          C       0.96121   0.03242   0.50000
C          C       0.96758   0.92879   0.50000
C          C       0.03173   0.06966   0.50000
C          C       0.93034   0.96207   0.50000
C          C       0.03793   0.96827   0.50000
C          C       0.14682   0.07481   0.50000
C          C       0.92519   0.07201   0.50000
C          C       0.92799   0.85318   0.50000
C          C       0.19312   0.14146   0.50000
C          C       0.85854   0.05166   0.50000
C          C       0.94834   0.80688   0.50000
C          C       0.26795   0.16690   0.50000
C          C       0.83310   0.10105   0.50000
C          C       0.89895   0.73205   0.50000
C          C       0.29546   0.12389   0.50000
C          C       0.87611   0.17157   0.50000
C          C       0.82843   0.70454   0.50000
C          C       0.36484   0.14978   0.50000
C          C       0.85022   0.21506   0.50000
C          C       0.78494   0.63516   0.50000
C          C       0.40926   0.21867   0.50000
C          C       0.78133   0.19059   0.50000
C          C       0.80941   0.59074   0.50000
C          C       0.38322   0.26225   0.50000
C          C       0.73775   0.12097   0.50000
C          C       0.87903   0.61678   0.50000
C          C       0.31391   0.23679   0.50000
C          C       0.76321   0.07712   0.50000
C          C       0.92288   0.68609   0.50000
N          N       0.47987   0.24140   0.50000
N          N       0.75860   0.23847   0.50000
N          N       0.76153   0.52013   0.50000
C          C       0.52903   0.30307   0.50000
C          C       0.69693   0.22596   0.50000
C          C       0.77404   0.47097   0.50000
C          C       0.17325   0.19184   0.50000
C          C       0.80816   0.98141   0.50000
C          C       0.01859   0.82675   0.50000
C          C       0.15865   0.23322   0.50000
C          C       0.76678   0.92543   0.50000
C          C       0.07457   0.84135   0.50000
C          C       0.59933   0.31805   0.50000
C          C       0.68195   0.28128   0.50000
C          C       0.71872   0.40067   0.50000
N          N       0.61503   0.26645   0.50000
N          N       0.73355   0.34858   0.50000
N          N       0.65142   0.38497   0.50000
H          H       0.05417   0.12287   0.50000
H          H       0.87713   0.93130   0.50000
H          H       0.06870   0.94583   0.50000
H          H       0.16540   0.04043   0.50000
H          H       0.95957   0.12497   0.50000
H          H       0.87503   0.83460   0.50000
H          H       0.26529   0.07010   0.50000
H          H       0.92990   0.19519   0.50000
H          H       0.80481   0.73471   0.50000
H          H       0.38463   0.11593   0.50000
H          H       0.88407   0.26870   0.50000
H          H       0.73130   0.61537   0.50000
H          H       0.41549   0.31593   0.50000
H          H       0.68407   0.09956   0.50000
H          H       0.90044   0.58451   0.50000
H          H       0.29683   0.27285   0.50000
H          H       0.72715   0.02398   0.50000
H          H       0.97602   0.70317   0.50000
H          H       0.51989   0.34470   0.50000
H          H       0.65530   0.17519   0.50000
H          H       0.82481   0.48011   0.50000
H          H       0.57501   0.21466   0.50000
H          H       0.78534   0.36035   0.50000
H          H       0.63965   0.42499   0.50000
