data_crystal

_cell_length_a    25.37500
_cell_length_b    25.37500
_cell_length_c    7.30000
_cell_angle_alpha 90.00000
_cell_angle_beta  90.00000
_cell_angle_gamma 120.00000

_space_group_name_Hall 'P 1'
_space_group_name_H-M_alt 'P 1'

loop_
_symmetry_equiv_pos_as_xyz
 'x,y,z'

loop_
_atom_site_label
_atom_site_type_symbol
_atom_site_fract_x
_atom_site_fract_y
_atom_site_fract_z
C          C       0.29629   0.69101   0.16906
C          C       0.30899   0.60528   0.16906
C          C       0.39472   0.70371   0.16906
C          C       0.69900   0.30381   0.45034
C          C       0.69619   0.39519   0.45034
C          C       0.60481   0.30100   0.45034
C          C       0.73038   0.36667   0.44616
C          C       0.63333   0.36371   0.44616
C          C       0.63629   0.26962   0.44616
C          C       0.79435   0.40003   0.42389
C          C       0.59997   0.39432   0.42389
C          C       0.60568   0.20565   0.42389
C          C       0.83144   0.37625   0.47654
C          C       0.62375   0.45519   0.47654
C          C       0.54481   0.16856   0.47654
C          C       0.89191   0.40686   0.44521
C          C       0.59314   0.48505   0.44521
C          C       0.51495   0.10809   0.44521
C          C       0.92011   0.46322   0.36152
C          C       0.53678   0.45689   0.36152
C          C       0.54311   0.07989   0.36152
C          C       0.88437   0.48755   0.31146
C          C       0.51245   0.39682   0.31146
C          C       0.60318   0.11563   0.31146
C          C       0.82383   0.45765   0.34093
C          C       0.54235   0.36618   0.34093
C          C       0.63382   0.17617   0.34093
N          N       0.98175   0.49558   0.32463
N          N       0.50442   0.48617   0.32463
N          N       0.51383   0.01825   0.32463
C          C       0.12422   0.49994   0.33467
C          C       0.50006   0.62428   0.33467
C          C       0.37572   0.87578   0.33467
C          C       0.18356   0.53337   0.29175
C          C       0.46663   0.65019   0.29175
C          C       0.34981   0.81644   0.29175
C          C       0.20680   0.59036   0.20844
C          C       0.40964   0.61644   0.20844
C          C       0.38356   0.79320   0.20844
C          C       0.16504   0.60927   0.17123
C          C       0.39073   0.55577   0.17123
C          C       0.44423   0.83496   0.17123
C          C       0.10563   0.57566   0.21776
C          C       0.42434   0.52997   0.21776
C          C       0.47003   0.89437   0.21776
C          C       0.08331   0.51921   0.30056
C          C       0.48079   0.56410   0.30056
C          C       0.43590   0.91669   0.30056
C          C       0.02158   0.48007   0.35421
C          C       0.51993   0.54151   0.35421
C          C       0.45849   0.97842   0.35421
C          C       0.27004   0.62842   0.17541
C          C       0.37158   0.64162   0.17541
C          C       0.35838   0.72996   0.17541
O          O       0.07023   0.60003   0.18021
O          O       0.39997   0.47020   0.18021
O          O       0.52980   0.92977   0.18021
H          H       0.26702   0.71022   0.17838
H          H       0.28978   0.55680   0.17838
H          H       0.44320   0.73298   0.17838
H          H       0.81188   0.33275   0.04468
H          H       0.66725   0.47913   0.04468
H          H       0.52087   0.18812   0.04468
H          H       0.91798   0.38616   0.48860
H          H       0.61384   0.53182   0.48860
H          H       0.46818   0.08202   0.48860
H          H       0.90479   0.53127   0.24436
H          H       0.46873   0.37352   0.24436
H          H       0.62648   0.09521   0.24436
H          H       0.79796   0.47803   0.29248
H          H       0.52197   0.31993   0.29248
H          H       0.68007   0.20204   0.29248
H          H       0.10945   0.45690   0.40192
H          H       0.54310   0.65255   0.40192
H          H       0.34745   0.89055   0.40192
H          H       0.21337   0.51648   0.33077
H          H       0.48352   0.69689   0.33077
H          H       0.30311   0.78663   0.33077
H          H       0.17980   0.65233   0.10421
H          H       0.34767   0.52747   0.10421
H          H       0.47253   0.82020   0.10421
H          H       0.01114   0.43752   0.41792
H          H       0.56248   0.57362   0.41792
H          H       0.42638   0.98886   0.41792
H          H       0.03428   0.57603   0.24480
H          H       0.42397   0.45825   0.24480
H          H       0.54175   0.96572   0.24480
H          H       0.71954   0.44409   0.44383
H          H       0.55591   0.27545   0.44383
H          H       0.72455   0.28046   0.44383
C          C       0.29629   0.69101   0.66907
C          C       0.30899   0.60528   0.66907
C          C       0.39472   0.70371   0.66907
C          C       0.69900   0.30381   0.95034
C          C       0.69619   0.39519   0.95034
C          C       0.60481   0.30100   0.95034
C          C       0.73038   0.36667   0.94616
C          C       0.63333   0.36371   0.94616
C          C       0.63629   0.26962   0.94616
C          C       0.79435   0.40003   0.92389
C          C       0.59997   0.39432   0.92389
C          C       0.60568   0.20565   0.92389
C          C       0.83144   0.37625   0.97654
C          C       0.62375   0.45519   0.97654
C          C       0.54481   0.16856   0.97654
C          C       0.89191   0.40686   0.94521
C          C       0.59314   0.48505   0.94521
C          C       0.51495   0.10809   0.94521
C          C       0.92011   0.46322   0.86152
C          C       0.53678   0.45689   0.86152
C          C       0.54311   0.07989   0.86152
C          C       0.88437   0.48755   0.81146
C          C       0.51245   0.39682   0.81146
C          C       0.60318   0.11563   0.81146
C          C       0.82383   0.45765   0.84093
C          C       0.54235   0.36618   0.84093
C          C       0.63382   0.17617   0.84093
N          N       0.98175   0.49558   0.82463
N          N       0.50442   0.48617   0.82463
N          N       0.51383   0.01825   0.82463
C          C       0.12422   0.49994   0.83467
C          C       0.50006   0.62428   0.83467
C          C       0.37572   0.87578   0.83467
C          C       0.18356   0.53337   0.79175
C          C       0.46663   0.65019   0.79175
C          C       0.34981   0.81644   0.79175
C          C       0.20680   0.59036   0.70844
C          C       0.40964   0.61644   0.70844
C          C       0.38356   0.79320   0.70844
C          C       0.16504   0.60927   0.67124
C          C       0.39073   0.55577   0.67124
C          C       0.44423   0.83496   0.67124
C          C       0.10563   0.57566   0.71775
C          C       0.42434   0.52997   0.71775
C          C       0.47003   0.89437   0.71775
C          C       0.08331   0.51921   0.80056
C          C       0.48079   0.56410   0.80056
C          C       0.43590   0.91669   0.80056
C          C       0.02158   0.48007   0.85421
C          C       0.51993   0.54151   0.85421
C          C       0.45849   0.97842   0.85421
C          C       0.27004   0.62842   0.67541
C          C       0.37158   0.64162   0.67541
C          C       0.35838   0.72996   0.67541
O          O       0.07023   0.60003   0.68021
O          O       0.39997   0.47020   0.68021
O          O       0.52980   0.92977   0.68021
H          H       0.26702   0.71022   0.67838
H          H       0.28978   0.55680   0.67838
H          H       0.44320   0.73298   0.67838
H          H       0.81188   0.33275   0.54468
H          H       0.66725   0.47913   0.54468
H          H       0.52087   0.18812   0.54468
H          H       0.91798   0.38616   0.98860
H          H       0.61384   0.53182   0.98860
H          H       0.46818   0.08202   0.98860
H          H       0.90479   0.53127   0.74436
H          H       0.46873   0.37352   0.74436
H          H       0.62648   0.09521   0.74436
H          H       0.79796   0.47803   0.79248
H          H       0.52197   0.31993   0.79248
H          H       0.68007   0.20204   0.79248
H          H       0.10945   0.45690   0.90192
H          H       0.54310   0.65255   0.90192
H          H       0.34745   0.89055   0.90192
H          H       0.21337   0.51648   0.83077
H          H       0.48352   0.69689   0.83077
H          H       0.30311   0.78663   0.83077
H          H       0.17980   0.65233   0.60421
H          H       0.34767   0.52747   0.60421
H          H       0.47253   0.82020   0.60421
H          H       0.01114   0.43752   0.91792
H          H       0.56248   0.57362   0.91792
H          H       0.42638   0.98886   0.91792
H          H       0.03428   0.57603   0.74481
H          H       0.42397   0.45825   0.74481
H          H       0.54175   0.96572   0.74481
H          H       0.71954   0.44409   0.94383
H          H       0.55591   0.27545   0.94383
H          H       0.72455   0.28046   0.94383
