data_crystal

_cell_length_a    28.97900
_cell_length_b    28.97900
_cell_length_c    7.00000
_cell_angle_alpha 90.00000
_cell_angle_beta  90.00000
_cell_angle_gamma 120.00000

_space_group_name_Hall 'P 1'
_space_group_name_H-M_alt 'P 1'

loop_
_symmetry_equiv_pos_as_xyz
 'x,y,z'

loop_
_atom_site_label
_atom_site_type_symbol
_atom_site_fract_x
_atom_site_fract_y
_atom_site_fract_z
N          N       0.02628   0.50988   0.25000
N          N       0.51640   0.02628   0.25000
H          H       0.73066   0.43284   0.25000
H          H       0.56716   0.29782   0.25000
H          H       0.70218   0.26934   0.25000
H          H       0.26934   0.56716   0.25000
H          H       0.43284   0.70218   0.25000
H          H       0.29782   0.73066   0.25000
C          C       0.68726   0.29904   0.25000
C          C       0.70096   0.38822   0.25000
C          C       0.61178   0.31274   0.25000
C          C       0.31274   0.70096   0.25000
C          C       0.29904   0.61178   0.25000
C          C       0.38822   0.68726   0.25000
C          C       0.72136   0.35375   0.25000
C          C       0.64625   0.36761   0.25000
C          C       0.63239   0.27864   0.25000
C          C       0.27864   0.64625   0.25000
C          C       0.35375   0.63239   0.25000
C          C       0.36761   0.72136   0.25000
C          C       0.77606   0.37438   0.25000
C          C       0.62562   0.40168   0.25000
C          C       0.59832   0.22394   0.25000
C          C       0.22394   0.62562   0.25000
C          C       0.37438   0.59832   0.25000
C          C       0.40168   0.77606   0.25000
C          C       0.79678   0.34037   0.25000
C          C       0.65963   0.45641   0.25000
C          C       0.54359   0.20322   0.25000
C          C       0.20322   0.65963   0.25000
C          C       0.34037   0.54359   0.25000
C          C       0.45641   0.79678   0.25000
C          C       0.85150   0.36111   0.25000
C          C       0.63889   0.49039   0.25000
C          C       0.50961   0.14850   0.25000
C          C       0.14850   0.63889   0.25000
C          C       0.36111   0.50961   0.25000
C          C       0.49039   0.85150   0.25000
C          C       0.88552   0.41584   0.25000
C          C       0.58416   0.46968   0.25000
C          C       0.53032   0.11448   0.25000
C          C       0.11448   0.58416   0.25000
C          C       0.41584   0.53032   0.25000
C          C       0.46968   0.88552   0.25000
C          C       0.86477   0.44985   0.25000
C          C       0.55015   0.41492   0.25000
C          C       0.58508   0.13523   0.25000
C          C       0.13523   0.55015   0.25000
C          C       0.44985   0.58508   0.25000
C          C       0.41492   0.86477   0.25000
C          C       0.81006   0.42909   0.25000
C          C       0.57091   0.38097   0.25000
C          C       0.61903   0.18994   0.25000
C          C       0.18994   0.57091   0.25000
C          C       0.42909   0.61903   0.25000
C          C       0.38097   0.81006   0.25000
C          C       0.94025   0.43649   0.25000
C          C       0.56351   0.50376   0.25000
C          C       0.49624   0.05975   0.25000
C          C       0.05975   0.56351   0.25000
C          C       0.43649   0.49624   0.25000
C          C       0.50376   0.94025   0.25000
O          O       0.89800   0.50352   0.25000
O          O       0.49648   0.39448   0.25000
O          O       0.60552   0.10200   0.25000
O          O       0.10200   0.49648   0.25000
O          O       0.50352   0.60552   0.25000
O          O       0.39448   0.89800   0.25000
N          N       0.97372   0.49012   0.25000
N          N       0.50988   0.48360   0.25000
N          N       0.49012   0.51640   0.25000
N          N       0.48360   0.97372   0.25000
H          H       0.22992   0.70260   0.25000
H          H       0.29740   0.52731   0.25000
H          H       0.66559   0.53336   0.25000
H          H       0.52731   0.22992   0.25000
H          H       0.86777   0.33441   0.25000
H          H       0.47269   0.77009   0.25000
H          H       0.70260   0.47269   0.25000
H          H       0.77009   0.29740   0.25000
H          H       0.51404   0.59322   0.13417
H          H       0.33441   0.46664   0.25000
H          H       0.13223   0.66559   0.25000
H          H       0.54422   0.33799   0.25000
H          H       0.53336   0.86777   0.25000
H          H       0.66200   0.20623   0.25000
H          H       0.20623   0.54422   0.25000
H          H       0.45578   0.66200   0.25000
H          H       0.33799   0.79377   0.25000
H          H       0.95643   0.40971   0.25000
H          H       0.59029   0.54672   0.25000
H          H       0.45328   0.04357   0.25000
H          H       0.04357   0.59029   0.25000
H          H       0.40971   0.45328   0.25000
H          H       0.48596   0.40678   0.13417
H          H       0.59322   0.07918   0.13417
H          H       0.40678   0.92082   0.13417
H          H       0.79377   0.45578   0.25000
H          H       0.54672   0.95643   0.25000
H          H       0.92082   0.51404   0.13417
H          H       0.07918   0.48596   0.13417
H          H       0.46664   0.13223   0.25000
N          N       0.02628   0.50988   0.75000
N          N       0.51640   0.02628   0.75000
H          H       0.73066   0.43284   0.75000
H          H       0.56716   0.29782   0.75000
H          H       0.70218   0.26934   0.75000
H          H       0.26934   0.56716   0.75000
H          H       0.43284   0.70218   0.75000
H          H       0.29782   0.73066   0.75000
C          C       0.68726   0.29904   0.75000
C          C       0.70096   0.38822   0.75000
C          C       0.61178   0.31274   0.75000
C          C       0.31274   0.70096   0.75000
C          C       0.29904   0.61178   0.75000
C          C       0.38822   0.68726   0.75000
C          C       0.72136   0.35375   0.75000
C          C       0.64625   0.36761   0.75000
C          C       0.63239   0.27864   0.75000
C          C       0.27864   0.64625   0.75000
C          C       0.35375   0.63239   0.75000
C          C       0.36761   0.72136   0.75000
C          C       0.77606   0.37438   0.75000
C          C       0.62562   0.40168   0.75000
C          C       0.59832   0.22394   0.75000
C          C       0.22394   0.62562   0.75000
C          C       0.37438   0.59832   0.75000
C          C       0.40168   0.77606   0.75000
C          C       0.79678   0.34037   0.75000
C          C       0.65963   0.45641   0.75000
C          C       0.54359   0.20322   0.75000
C          C       0.20322   0.65963   0.75000
C          C       0.34037   0.54359   0.75000
C          C       0.45641   0.79678   0.75000
C          C       0.85150   0.36111   0.75000
C          C       0.63889   0.49039   0.75000
C          C       0.50961   0.14850   0.75000
C          C       0.14850   0.63889   0.75000
C          C       0.36111   0.50961   0.75000
C          C       0.49039   0.85150   0.75000
C          C       0.88552   0.41584   0.75000
C          C       0.58416   0.46968   0.75000
C          C       0.53032   0.11448   0.75000
C          C       0.11448   0.58416   0.75000
C          C       0.41584   0.53032   0.75000
C          C       0.46968   0.88552   0.75000
C          C       0.86477   0.44985   0.75000
C          C       0.55015   0.41492   0.75000
C          C       0.58508   0.13523   0.75000
C          C       0.13523   0.55015   0.75000
C          C       0.44985   0.58508   0.75000
C          C       0.41492   0.86477   0.75000
C          C       0.81006   0.42909   0.75000
C          C       0.57091   0.38097   0.75000
C          C       0.61903   0.18994   0.75000
C          C       0.18994   0.57091   0.75000
C          C       0.42909   0.61903   0.75000
C          C       0.38097   0.81006   0.75000
C          C       0.94025   0.43649   0.75000
C          C       0.56351   0.50376   0.75000
C          C       0.49624   0.05975   0.75000
C          C       0.05975   0.56351   0.75000
C          C       0.43649   0.49624   0.75000
C          C       0.50376   0.94025   0.75000
O          O       0.89800   0.50352   0.75000
O          O       0.49648   0.39448   0.75000
O          O       0.60552   0.10200   0.75000
O          O       0.10200   0.49648   0.75000
O          O       0.50352   0.60552   0.75000
O          O       0.39448   0.89800   0.75000
N          N       0.97372   0.49012   0.75000
N          N       0.50988   0.48360   0.75000
N          N       0.49012   0.51640   0.75000
N          N       0.48360   0.97372   0.75000
H          H       0.66200   0.20623   0.75000
H          H       0.33799   0.79377   0.75000
H          H       0.33441   0.46664   0.75000
H          H       0.52731   0.22992   0.75000
H          H       0.22992   0.70260   0.75000
H          H       0.66559   0.53336   0.75000
H          H       0.40971   0.45328   0.75000
H          H       0.79377   0.45578   0.75000
H          H       0.77009   0.29740   0.75000
H          H       0.70260   0.47269   0.75000
H          H       0.29740   0.52731   0.75000
H          H       0.47269   0.77009   0.75000
H          H       0.86777   0.33441   0.75000
H          H       0.46664   0.13223   0.75000
H          H       0.13223   0.66559   0.75000
H          H       0.53336   0.86777   0.75000
H          H       0.54422   0.33799   0.75000
H          H       0.20623   0.54422   0.75000
H          H       0.45578   0.66200   0.75000
H          H       0.95643   0.40971   0.75000
H          H       0.59029   0.54672   0.75000
H          H       0.45328   0.04357   0.75000
H          H       0.04357   0.59029   0.75000
H          H       0.54672   0.95643   0.75000
H          H       0.59322   0.07918   0.63417
H          H       0.92082   0.51404   0.63417
H          H       0.48596   0.40678   0.63417
H          H       0.07918   0.48596   0.63417
H          H       0.51404   0.59322   0.63417
H          H       0.40678   0.92082   0.63417
