data_crystal

_cell_length_a    21.87480
_cell_length_b    21.87480
_cell_length_c    7.45760
_cell_angle_alpha 90.00000
_cell_angle_beta  90.00000
_cell_angle_gamma 120.00000

_space_group_name_Hall 'P 1'
_space_group_name_H-M_alt 'P 1'

loop_
_symmetry_equiv_pos_as_xyz
 'x,y,z'

loop_
_atom_site_label
_atom_site_type_symbol
_atom_site_fract_x
_atom_site_fract_y
_atom_site_fract_z
N          N       0.14429   0.55994   0.00000
N          N       0.44006   0.58435   0.00000
N          N       0.41565   0.85571   0.00000
N          N       0.85571   0.44006   0.00000
N          N       0.55994   0.41565   0.00000
N          N       0.58435   0.14429   0.00000
C          C       0.07169   0.53128   0.00000
C          C       0.46872   0.54041   0.00000
C          C       0.45959   0.92831   0.00000
C          C       0.92831   0.46872   0.00000
C          C       0.53128   0.45959   0.00000
C          C       0.54041   0.07169   0.00000
C          C       0.03990   0.57100   0.00000
C          C       0.42900   0.46890   0.00000
C          C       0.53110   0.96010   0.00000
C          C       0.96010   0.42900   0.00000
C          C       0.57100   0.53110   0.00000
C          C       0.46890   0.03990   0.00000
C          C       0.96885   0.53961   0.00000
C          C       0.46039   0.42924   0.00000
C          C       0.57076   0.03115   0.00000
C          C       0.03115   0.46039   0.00000
C          C       0.53961   0.57076   0.00000
C          C       0.42924   0.96885   0.00000
C          C       0.80961   0.37592   0.00000
C          C       0.62408   0.43369   0.00000
C          C       0.56631   0.19039   0.00000
C          C       0.19039   0.62408   0.00000
C          C       0.37592   0.56631   0.00000
C          C       0.43369   0.80961   0.00000
C          C       0.73656   0.35463   0.00000
C          C       0.64537   0.38193   0.00000
C          C       0.61807   0.26344   0.00000
C          C       0.26344   0.64537   0.00000
C          C       0.35463   0.61807   0.00000
C          C       0.38193   0.73656   0.00000
C          C       0.71486   0.40275   0.00000
C          C       0.59725   0.31211   0.00000
C          C       0.68789   0.28514   0.00000
C          C       0.28514   0.59725   0.00000
C          C       0.40275   0.68789   0.00000
C          C       0.31211   0.71486   0.00000
H          H       0.06883   0.62580   0.00000
H          H       0.37420   0.44303   0.00000
H          H       0.55697   0.93117   0.00000
H          H       0.93117   0.37420   0.00000
H          H       0.62580   0.55697   0.00000
H          H       0.44303   0.06883   0.00000
H          H       0.94481   0.57047   0.00000
H          H       0.42953   0.37434   0.00000
H          H       0.62566   0.05519   0.00000
H          H       0.05519   0.42953   0.00000
H          H       0.57047   0.62566   0.00000
H          H       0.37434   0.94481   0.00000
H          H       0.82337   0.33675   0.00000
H          H       0.66325   0.48662   0.00000
H          H       0.51338   0.17663   0.00000
H          H       0.17663   0.66325   0.00000
H          H       0.33675   0.51338   0.00000
H          H       0.48662   0.82337   0.00000
H          H       0.75219   0.45651   0.00000
H          H       0.54349   0.29568   0.00000
H          H       0.70432   0.24781   0.00000
H          H       0.24781   0.54349   0.00000
H          H       0.45651   0.70432   0.00000
H          H       0.29568   0.75219   0.00000
N          N       0.14429   0.55994   0.50000
N          N       0.44006   0.58435   0.50000
N          N       0.41565   0.85571   0.50000
N          N       0.85571   0.44006   0.50000
N          N       0.55994   0.41565   0.50000
N          N       0.58435   0.14429   0.50000
C          C       0.07169   0.53128   0.50000
C          C       0.46872   0.54041   0.50000
C          C       0.45959   0.92831   0.50000
C          C       0.92831   0.46872   0.50000
C          C       0.53128   0.45959   0.50000
C          C       0.54041   0.07169   0.50000
C          C       0.03990   0.57100   0.50000
C          C       0.42900   0.46890   0.50000
C          C       0.53110   0.96010   0.50000
C          C       0.96010   0.42900   0.50000
C          C       0.57100   0.53110   0.50000
C          C       0.46890   0.03990   0.50000
C          C       0.96885   0.53961   0.50000
C          C       0.46039   0.42924   0.50000
C          C       0.57076   0.03115   0.50000
C          C       0.03115   0.46039   0.50000
C          C       0.53961   0.57076   0.50000
C          C       0.42924   0.96885   0.50000
C          C       0.80961   0.37592   0.50000
C          C       0.62408   0.43369   0.50000
C          C       0.56631   0.19039   0.50000
C          C       0.19039   0.62408   0.50000
C          C       0.37592   0.56631   0.50000
C          C       0.43369   0.80961   0.50000
C          C       0.73656   0.35463   0.50000
C          C       0.64537   0.38193   0.50000
C          C       0.61807   0.26344   0.50000
C          C       0.26344   0.64537   0.50000
C          C       0.35463   0.61807   0.50000
C          C       0.38193   0.73656   0.50000
C          C       0.71486   0.40275   0.50000
C          C       0.59725   0.31211   0.50000
C          C       0.68789   0.28514   0.50000
C          C       0.28514   0.59725   0.50000
C          C       0.40275   0.68789   0.50000
C          C       0.31211   0.71486   0.50000
H          H       0.06883   0.62580   0.50000
H          H       0.37420   0.44303   0.50000
H          H       0.55697   0.93117   0.50000
H          H       0.93117   0.37420   0.50000
H          H       0.62580   0.55697   0.50000
H          H       0.44303   0.06883   0.50000
H          H       0.94481   0.57047   0.50000
H          H       0.42953   0.37434   0.50000
H          H       0.62566   0.05519   0.50000
H          H       0.05519   0.42953   0.50000
H          H       0.57047   0.62566   0.50000
H          H       0.37434   0.94481   0.50000
H          H       0.82337   0.33675   0.50000
H          H       0.66325   0.48662   0.50000
H          H       0.51338   0.17663   0.50000
H          H       0.17663   0.66325   0.50000
H          H       0.33675   0.51338   0.50000
H          H       0.48662   0.82337   0.50000
H          H       0.75219   0.45651   0.50000
H          H       0.54349   0.29568   0.50000
H          H       0.70432   0.24781   0.50000
H          H       0.24781   0.54349   0.50000
H          H       0.45651   0.70432   0.50000
H          H       0.29568   0.75219   0.50000
