data_crystal

_cell_length_a    36.11350
_cell_length_b    36.11350
_cell_length_c    6.93880
_cell_angle_alpha 90.00000
_cell_angle_beta  90.00000
_cell_angle_gamma 120.00000

_space_group_name_Hall 'P 1'
_space_group_name_H-M_alt 'P 1'

loop_
_symmetry_equiv_pos_as_xyz
 'x,y,z'

loop_
_atom_site_label
_atom_site_type_symbol
_atom_site_fract_x
_atom_site_fract_y
_atom_site_fract_z
C          C       0.62394   0.31409   0.49443
C          C       0.68591   0.30985   0.49443
C          C       0.69015   0.37606   0.49443
C          C       0.37606   0.68591   0.49443
C          C       0.31409   0.69015   0.49443
C          C       0.30985   0.62394   0.49443
C          C       0.64281   0.28993   0.49449
C          C       0.71007   0.35288   0.49449
C          C       0.64712   0.35719   0.49449
C          C       0.35719   0.71007   0.49449
C          C       0.28993   0.64712   0.49449
C          C       0.35288   0.64281   0.49449
C          C       0.62643   0.38240   0.49486
C          C       0.61760   0.24403   0.49486
C          C       0.75597   0.37357   0.49486
C          C       0.37357   0.61760   0.49486
C          C       0.38240   0.75597   0.49486
C          C       0.24403   0.62643   0.49486
C          C       0.64574   0.42213   0.41838
C          C       0.57787   0.22361   0.41838
C          C       0.77639   0.35426   0.41838
C          C       0.35426   0.57787   0.41838
C          C       0.42213   0.77639   0.41838
C          C       0.22361   0.64574   0.41838
C          C       0.62654   0.44573   0.42127
C          C       0.55427   0.18081   0.42127
C          C       0.81919   0.37346   0.42127
C          C       0.37346   0.55427   0.42127
C          C       0.44573   0.81919   0.42127
C          C       0.18081   0.62654   0.42127
C          C       0.58725   0.43001   0.49428
C          C       0.56999   0.15724   0.49428
C          C       0.84276   0.41275   0.49428
C          C       0.41275   0.56999   0.49428
C          C       0.43001   0.84276   0.49428
C          C       0.15724   0.58725   0.49428
C          C       0.56764   0.39049   0.07094
C          C       0.60951   0.17715   0.07094
C          C       0.82285   0.43236   0.07094
C          C       0.43236   0.60951   0.07094
C          C       0.39049   0.82285   0.07094
C          C       0.17715   0.56764   0.07094
C          C       0.58715   0.36716   0.07263
C          C       0.63284   0.21999   0.07263
C          C       0.78001   0.41285   0.07263
C          C       0.41285   0.63284   0.07263
C          C       0.36716   0.78001   0.07263
C          C       0.21999   0.58715   0.07263
N          N       0.56898   0.45557   0.49325
N          N       0.54443   0.11341   0.49325
N          N       0.88659   0.43102   0.49325
N          N       0.43102   0.54443   0.49325
N          N       0.45557   0.88659   0.49325
N          N       0.11341   0.56898   0.49325
C          C       0.53003   0.44292   0.00774
C          C       0.55708   0.08711   0.00774
C          C       0.91289   0.46997   0.00774
C          C       0.46997   0.55708   0.00774
C          C       0.44292   0.91289   0.00774
C          C       0.08711   0.53003   0.00774
C          C       0.51496   0.47234   0.00738
C          C       0.52766   0.04262   0.00738
C          C       0.95738   0.48504   0.00738
C          C       0.48504   0.52766   0.00738
C          C       0.47234   0.95738   0.00738
C          C       0.04262   0.51496   0.00738
C          C       0.54225   0.51487   0.00735
C          C       0.48513   0.02738   0.00735
C          C       0.97262   0.45775   0.00735
C          C       0.45775   0.48513   0.00735
C          C       0.51487   0.97262   0.00735
C          C       0.02738   0.54225   0.00735
C          C       0.52739   0.54228   0.00778
C          C       0.45772   0.98511   0.00778
C          C       0.01489   0.47261   0.00778
C          C       0.47261   0.45772   0.00778
C          C       0.54228   0.01489   0.00778
C          C       0.98511   0.52739   0.00778
H          H       0.45102   0.42507   0.00805
H          H       0.57493   0.02595   0.00805
H          H       0.97405   0.54898   0.00805
H          H       0.54898   0.57493   0.00805
H          H       0.42507   0.97405   0.00805
H          H       0.02595   0.45102   0.00805
H          H       0.59095   0.29924   0.49450
H          H       0.70076   0.29171   0.49450
H          H       0.70829   0.40905   0.49450
H          H       0.40905   0.70076   0.49450
H          H       0.29924   0.70829   0.49450
H          H       0.29171   0.59095   0.49450
H          H       0.67514   0.43481   0.35084
H          H       0.56519   0.24033   0.35084
H          H       0.75967   0.32486   0.35084
H          H       0.32486   0.56519   0.35084
H          H       0.43481   0.75967   0.35084
H          H       0.24033   0.67514   0.35084
H          H       0.64173   0.47607   0.36123
H          H       0.52393   0.16566   0.36123
H          H       0.83434   0.35827   0.36123
H          H       0.35827   0.52393   0.36123
H          H       0.47607   0.83434   0.36123
H          H       0.16566   0.64173   0.36123
H          H       0.53810   0.37816   0.13663
H          H       0.62184   0.15994   0.13663
H          H       0.84006   0.46190   0.13663
H          H       0.46190   0.62184   0.13663
H          H       0.37816   0.84006   0.13663
H          H       0.15994   0.53810   0.13663
H          H       0.57182   0.33781   0.14139
H          H       0.66219   0.23401   0.14139
H          H       0.76599   0.42818   0.14139
H          H       0.42818   0.66219   0.14139
H          H       0.33781   0.76599   0.14139
H          H       0.23401   0.57182   0.14139
H          H       0.50780   0.41052   0.01502
H          H       0.58948   0.09728   0.01502
H          H       0.90272   0.49220   0.01502
H          H       0.49220   0.58948   0.01502
H          H       0.41052   0.90272   0.01502
H          H       0.09728   0.50780   0.01502
H          H       0.57505   0.52679   0.00755
H          H       0.47321   0.04826   0.00755
H          H       0.95174   0.42495   0.00755
H          H       0.42495   0.47321   0.00755
H          H       0.52679   0.95174   0.00755
H          H       0.04826   0.57505   0.00755
C          C       0.62394   0.31409   0.99443
C          C       0.68591   0.30985   0.99443
C          C       0.69015   0.37606   0.99443
C          C       0.37606   0.68591   0.99443
C          C       0.31409   0.69015   0.99443
C          C       0.30985   0.62394   0.99443
C          C       0.64281   0.28993   0.99449
C          C       0.71007   0.35288   0.99449
C          C       0.64712   0.35719   0.99449
C          C       0.35719   0.71007   0.99449
C          C       0.28993   0.64712   0.99449
C          C       0.35288   0.64281   0.99449
C          C       0.62643   0.38240   0.99486
C          C       0.61760   0.24403   0.99486
C          C       0.75597   0.37357   0.99486
C          C       0.37357   0.61760   0.99486
C          C       0.38240   0.75597   0.99486
C          C       0.24403   0.62643   0.99486
C          C       0.64574   0.42213   0.91838
C          C       0.57787   0.22361   0.91838
C          C       0.77639   0.35426   0.91838
C          C       0.35426   0.57787   0.91838
C          C       0.42213   0.77639   0.91838
C          C       0.22361   0.64574   0.91838
C          C       0.62654   0.44573   0.92126
C          C       0.55427   0.18081   0.92126
C          C       0.81919   0.37346   0.92126
C          C       0.37346   0.55427   0.92126
C          C       0.44573   0.81919   0.92126
C          C       0.18081   0.62654   0.92126
C          C       0.58725   0.43001   0.99428
C          C       0.56999   0.15724   0.99428
C          C       0.84276   0.41275   0.99428
C          C       0.41275   0.56999   0.99428
C          C       0.43001   0.84276   0.99428
C          C       0.15724   0.58725   0.99428
C          C       0.56764   0.39049   0.57094
C          C       0.60951   0.17715   0.57094
C          C       0.82285   0.43236   0.57094
C          C       0.43236   0.60951   0.57094
C          C       0.39049   0.82285   0.57094
C          C       0.17715   0.56764   0.57094
C          C       0.58715   0.36716   0.57263
C          C       0.63284   0.21999   0.57263
C          C       0.78001   0.41285   0.57263
C          C       0.41285   0.63284   0.57263
C          C       0.36716   0.78001   0.57263
C          C       0.21999   0.58715   0.57263
N          N       0.56898   0.45557   0.99325
N          N       0.54443   0.11341   0.99325
N          N       0.88659   0.43102   0.99325
N          N       0.43102   0.54443   0.99325
N          N       0.45557   0.88659   0.99325
N          N       0.11341   0.56898   0.99325
C          C       0.53003   0.44292   0.50774
C          C       0.55708   0.08711   0.50774
C          C       0.91289   0.46997   0.50774
C          C       0.46997   0.55708   0.50774
C          C       0.44292   0.91289   0.50774
C          C       0.08711   0.53003   0.50774
C          C       0.51496   0.47234   0.50738
C          C       0.52766   0.04262   0.50738
C          C       0.95738   0.48504   0.50738
C          C       0.48504   0.52766   0.50738
C          C       0.47234   0.95738   0.50738
C          C       0.04262   0.51496   0.50738
C          C       0.54225   0.51487   0.50735
C          C       0.48513   0.02738   0.50735
C          C       0.97262   0.45775   0.50735
C          C       0.45775   0.48513   0.50735
C          C       0.51487   0.97262   0.50735
C          C       0.02738   0.54225   0.50735
C          C       0.52739   0.54228   0.50778
C          C       0.45772   0.98511   0.50778
C          C       0.01489   0.47261   0.50778
C          C       0.47261   0.45772   0.50778
C          C       0.54228   0.01489   0.50778
C          C       0.98511   0.52739   0.50778
H          H       0.45102   0.42507   0.50805
H          H       0.57493   0.02595   0.50805
H          H       0.97405   0.54898   0.50805
H          H       0.54898   0.57493   0.50805
H          H       0.42507   0.97405   0.50805
H          H       0.02595   0.45102   0.50805
H          H       0.59095   0.29924   0.99450
H          H       0.70076   0.29171   0.99450
H          H       0.70829   0.40905   0.99450
H          H       0.40905   0.70076   0.99450
H          H       0.29924   0.70829   0.99450
H          H       0.29171   0.59095   0.99450
H          H       0.67514   0.43481   0.85084
H          H       0.56519   0.24033   0.85084
H          H       0.75967   0.32486   0.85084
H          H       0.32486   0.56519   0.85084
H          H       0.43481   0.75967   0.85084
H          H       0.24033   0.67514   0.85084
H          H       0.64173   0.47607   0.86123
H          H       0.52393   0.16566   0.86123
H          H       0.83434   0.35827   0.86123
H          H       0.35827   0.52393   0.86123
H          H       0.47607   0.83434   0.86123
H          H       0.16566   0.64173   0.86123
H          H       0.53810   0.37816   0.63663
H          H       0.62184   0.15994   0.63663
H          H       0.84006   0.46190   0.63663
H          H       0.46190   0.62184   0.63663
H          H       0.37816   0.84006   0.63663
H          H       0.15994   0.53810   0.63663
H          H       0.57182   0.33781   0.64140
H          H       0.66219   0.23401   0.64140
H          H       0.76599   0.42818   0.64140
H          H       0.42818   0.66219   0.64140
H          H       0.33781   0.76599   0.64140
H          H       0.23401   0.57182   0.64140
H          H       0.50780   0.41052   0.51502
H          H       0.58948   0.09728   0.51502
H          H       0.90272   0.49220   0.51502
H          H       0.49220   0.58948   0.51502
H          H       0.41052   0.90272   0.51502
H          H       0.09728   0.50780   0.51502
H          H       0.57505   0.52679   0.50755
H          H       0.47321   0.04826   0.50755
H          H       0.95174   0.42495   0.50755
H          H       0.42495   0.47321   0.50755
H          H       0.52679   0.95174   0.50755
H          H       0.04826   0.57505   0.50755
