data_crystal

_cell_length_a    41.06250
_cell_length_b    17.05000
_cell_length_c    7.89220
_cell_angle_alpha 89.98870
_cell_angle_beta  89.99350
_cell_angle_gamma 90.16670

_space_group_name_Hall 'P 1'
_space_group_name_H-M_alt 'P 1'

loop_
_symmetry_equiv_pos_as_xyz
 'x,y,z'

loop_
_atom_site_label
_atom_site_type_symbol
_atom_site_fract_x
_atom_site_fract_y
_atom_site_fract_z
C          C       0.08725   0.85062   0.47867
C          C       0.91275   0.14938   0.02133
C          C       0.07649   0.78390   0.06559
C          C       0.92351   0.21610   0.43441
C          C       0.09552   0.71643   0.07440
C          C       0.90448   0.28357   0.42560
C          C       0.12618   0.71448   0.00148
C          C       0.87382   0.28552   0.49852
C          C       0.13699   0.78006   0.41051
C          C       0.86301   0.21994   0.08949
C          C       0.11764   0.84740   0.39896
C          C       0.88236   0.15260   0.10104
C          C       0.17726   0.49653   0.07349
C          C       0.82274   0.50347   0.42651
C          C       0.19408   0.42669   0.10722
C          C       0.80592   0.57331   0.39278
C          C       0.22791   0.42807   0.11855
C          C       0.77209   0.57193   0.38144
C          C       0.24505   0.49789   0.09330
C          C       0.75495   0.50211   0.40670
C          C       0.22797   0.56719   0.05976
C          C       0.77203   0.43281   0.44024
C          C       0.19408   0.56719   0.04993
C          C       0.80592   0.43281   0.45007
C          C       0.17684   0.64139   0.01519
C          C       0.82316   0.35861   0.48481
C          C       0.28076   0.49921   0.09375
C          C       0.71924   0.50079   0.40625
C          C       0.17701   0.35125   0.12429
C          C       0.82299   0.64875   0.37571
N          N       0.14548   0.64532   0.02501
N          N       0.85452   0.35468   0.47499
C          C       0.08878   0.13880   0.06744
C          C       0.91122   0.86120   0.43256
C          C       0.11767   0.13905   0.16092
C          C       0.88233   0.86095   0.33908
C          C       0.13711   0.20619   0.16777
C          C       0.86289   0.79381   0.33223
C          C       0.12780   0.27467   0.08208
C          C       0.87220   0.72533   0.41792
C          C       0.09897   0.27478   0.49138
C          C       0.90103   0.72522   0.00862
C          C       0.08006   0.20729   0.48052
C          C       0.91994   0.79271   0.01948
N          N       0.14679   0.34504   0.08176
N          N       0.85321   0.65496   0.41824
C          C       0.43563   0.40853   0.02101
C          C       0.56437   0.59147   0.47899
C          C       0.45724   0.47162   0.04975
C          C       0.54276   0.52838   0.45025
C          C       0.48944   0.46742   0.49042
C          C       0.51056   0.53258   0.00958
C          C       0.50054   0.39861   0.41082
C          C       0.49946   0.60139   0.08918
C          C       0.48040   0.33152   0.40488
C          C       0.51960   0.66848   0.09512
C          C       0.44787   0.33847   0.45425
C          C       0.55213   0.66153   0.04575
C          C       0.44773   0.53821   0.13987
C          C       0.55227   0.46179   0.36013
C          C       0.46861   0.60079   0.16300
C          C       0.53139   0.39921   0.33700
C          C       0.49332   0.25317   0.35614
C          C       0.50668   0.74683   0.14386
C          C       0.40001   0.41598   0.04912
C          C       0.59999   0.58402   0.45088
C          C       0.61665   0.51875   0.01437
C          C       0.38335   0.48125   0.48563
C          C       0.65001   0.51165   0.49623
C          C       0.34999   0.48835   0.00377
C          C       0.66777   0.56954   0.41186
C          C       0.33223   0.43046   0.08814
C          C       0.65148   0.63548   0.35017
C          C       0.34852   0.36452   0.14983
C          C       0.61784   0.64291   0.36939
C          C       0.38216   0.35709   0.13061
C          C       0.52359   0.22797   0.41694
C          C       0.47641   0.77203   0.08306
C          C       0.53707   0.15751   0.36266
C          C       0.46293   0.84249   0.13734
C          C       0.52006   0.10951   0.25227
C          C       0.47994   0.89049   0.24773
C          C       0.48899   0.13129   0.20011
C          C       0.51101   0.86871   0.29989
C          C       0.47563   0.20263   0.25169
C          C       0.52437   0.79737   0.24831
N          N       0.29762   0.43495   0.10389
N          N       0.70238   0.56505   0.39611
N          N       0.46525   0.96016   0.31041
N          N       0.53475   0.03984   0.18959
C          C       0.06894   0.06597   0.05068
C          C       0.93106   0.93403   0.44932
C          C       0.03461   0.06663   0.05317
C          C       0.96539   0.93337   0.44683
C          C       0.01722   0.99884   0.00485
C          C       0.98278   0.00116   0.49515
C          C       0.03410   0.92870   0.46680
C          C       0.96590   0.07130   0.03320
C          C       0.06827   0.92543   0.48552
C          C       0.93173   0.07457   0.01448
C          C       0.08504   0.99485   0.02182
C          C       0.91496   0.00515   0.47818
C          C       0.01712   0.13283   0.10533
C          C       0.98288   0.86717   0.39467
C          C       0.98364   0.13549   0.09317
C          C       0.01636   0.86451   0.40683
H          H       0.05365   0.78451   0.13054
H          H       0.94635   0.21549   0.36946
H          H       0.08713   0.66628   0.14504
H          H       0.91287   0.33372   0.35496
H          H       0.15996   0.77892   0.34602
H          H       0.84004   0.22108   0.15398
H          H       0.12632   0.89691   0.32706
H          H       0.87368   0.10309   0.17294
H          H       0.19102   0.69341   0.49081
H          H       0.80898   0.30659   0.00919
H          H       0.29257   0.55538   0.08069
H          H       0.70743   0.44462   0.41931
H          H       0.19082   0.30033   0.16131
H          H       0.80918   0.69967   0.33869
H          H       0.12486   0.08779   0.23162
H          H       0.87514   0.91221   0.26838
H          H       0.15866   0.20483   0.24421
H          H       0.84134   0.79517   0.25579
H          H       0.09196   0.32686   0.42306
H          H       0.90804   0.67314   0.07694
H          H       0.05890   0.20817   0.40098
H          H       0.94110   0.79183   0.09902
H          H       0.43185   0.28875   0.44098
H          H       0.56815   0.71125   0.05902
H          H       0.42414   0.54216   0.19552
H          H       0.57586   0.45784   0.30448
H          H       0.46036   0.64844   0.24130
H          H       0.53964   0.35156   0.25870
H          H       0.60388   0.47277   0.07859
H          H       0.39612   0.52723   0.42141
H          H       0.66180   0.46197   0.05339
H          H       0.33820   0.53803   0.44661
H          H       0.66502   0.68069   0.28615
H          H       0.33498   0.31931   0.21385
H          H       0.60573   0.69398   0.31926
H          H       0.39427   0.30602   0.18074
H          H       0.53687   0.26306   0.00660
H          H       0.46313   0.73694   0.49340
H          H       0.56065   0.13984   0.40755
H          H       0.43935   0.86016   0.09245
H          H       0.47570   0.09418   0.11477
H          H       0.52430   0.90582   0.38523
H          H       0.45208   0.21943   0.20496
H          H       0.54792   0.78057   0.29504
H          H       0.44232   0.97750   0.27023
H          H       0.55768   0.02250   0.22977
H          H       0.47706   0.99399   0.40048
H          H       0.52294   0.00601   0.09952
H          H       0.11117   0.99347   0.02790
H          H       0.88883   0.00653   0.47210
H          H       0.02910   0.18347   0.15716
H          H       0.97090   0.81653   0.34284
H          H       0.97185   0.18857   0.13275
H          H       0.02815   0.81143   0.36725
H          H       0.15112   0.49580   0.06454
H          H       0.84888   0.50420   0.43546
H          H       0.24100   0.37439   0.14342
H          H       0.75900   0.62561   0.35658
H          H       0.24113   0.62121   0.03954
H          H       0.75887   0.37879   0.46046
C          C       0.08725   0.85062   0.97867
C          C       0.91275   0.14938   0.52133
C          C       0.07649   0.78390   0.56559
C          C       0.92351   0.21610   0.93441
C          C       0.09552   0.71643   0.57440
C          C       0.90448   0.28357   0.92560
C          C       0.12618   0.71448   0.50148
C          C       0.87382   0.28552   0.99852
C          C       0.13699   0.78006   0.91051
C          C       0.86301   0.21994   0.58949
C          C       0.11764   0.84740   0.89896
C          C       0.88236   0.15260   0.60104
C          C       0.17726   0.49653   0.57349
C          C       0.82274   0.50347   0.92651
C          C       0.19408   0.42669   0.60722
C          C       0.80592   0.57331   0.89278
C          C       0.22791   0.42807   0.61855
C          C       0.77209   0.57193   0.88145
C          C       0.24505   0.49789   0.59330
C          C       0.75495   0.50211   0.90670
C          C       0.22797   0.56719   0.55976
C          C       0.77203   0.43281   0.94025
C          C       0.19408   0.56719   0.54993
C          C       0.80592   0.43281   0.95007
C          C       0.17684   0.64139   0.51519
C          C       0.82316   0.35861   0.98481
C          C       0.28076   0.49921   0.59375
C          C       0.71924   0.50079   0.90625
C          C       0.17701   0.35125   0.62429
C          C       0.82299   0.64875   0.87571
N          N       0.14548   0.64532   0.52501
N          N       0.85452   0.35468   0.97499
C          C       0.08878   0.13880   0.56744
C          C       0.91122   0.86120   0.93256
C          C       0.11767   0.13905   0.66092
C          C       0.88233   0.86095   0.83908
C          C       0.13711   0.20619   0.66777
C          C       0.86289   0.79381   0.83223
C          C       0.12780   0.27467   0.58208
C          C       0.87220   0.72533   0.91792
C          C       0.09897   0.27478   0.99138
C          C       0.90103   0.72522   0.50862
C          C       0.08006   0.20729   0.98052
C          C       0.91994   0.79271   0.51948
N          N       0.14679   0.34504   0.58176
N          N       0.85321   0.65496   0.91824
C          C       0.43563   0.40853   0.52101
C          C       0.56437   0.59147   0.97899
C          C       0.45724   0.47162   0.54975
C          C       0.54276   0.52838   0.95025
C          C       0.48944   0.46742   0.99042
C          C       0.51056   0.53258   0.50958
C          C       0.50054   0.39861   0.91082
C          C       0.49946   0.60139   0.58918
C          C       0.48040   0.33152   0.90488
C          C       0.51960   0.66848   0.59512
C          C       0.44787   0.33847   0.95425
C          C       0.55213   0.66153   0.54575
C          C       0.44773   0.53821   0.63987
C          C       0.55227   0.46179   0.86013
C          C       0.46861   0.60079   0.66300
C          C       0.53139   0.39921   0.83700
C          C       0.49332   0.25317   0.85615
C          C       0.50668   0.74683   0.64385
C          C       0.40001   0.41598   0.54912
C          C       0.59999   0.58402   0.95088
C          C       0.61665   0.51875   0.51437
C          C       0.38335   0.48125   0.98563
C          C       0.65001   0.51165   0.99623
C          C       0.34999   0.48835   0.50377
C          C       0.66777   0.56954   0.91186
C          C       0.33223   0.43046   0.58814
C          C       0.65148   0.63548   0.85017
C          C       0.34852   0.36452   0.64983
C          C       0.61784   0.64291   0.86939
C          C       0.38216   0.35709   0.63061
C          C       0.52359   0.22797   0.91694
C          C       0.47641   0.77203   0.58306
C          C       0.53707   0.15751   0.86266
C          C       0.46293   0.84249   0.63734
C          C       0.52006   0.10951   0.75227
C          C       0.47994   0.89049   0.74773
C          C       0.48899   0.13129   0.70011
C          C       0.51101   0.86871   0.79989
C          C       0.47563   0.20263   0.75169
C          C       0.52437   0.79737   0.74831
N          N       0.29762   0.43495   0.60389
N          N       0.70238   0.56505   0.89611
N          N       0.46525   0.96016   0.81041
N          N       0.53475   0.03984   0.68959
C          C       0.06894   0.06597   0.55068
C          C       0.93106   0.93403   0.94931
C          C       0.03461   0.06663   0.55317
C          C       0.96539   0.93337   0.94682
C          C       0.01722   0.99884   0.50485
C          C       0.98278   0.00116   0.99515
C          C       0.03410   0.92870   0.96680
C          C       0.96590   0.07130   0.53320
C          C       0.06827   0.92543   0.98552
C          C       0.93173   0.07457   0.51448
C          C       0.08504   0.99485   0.52182
C          C       0.91496   0.00515   0.97818
C          C       0.01712   0.13283   0.60533
C          C       0.98288   0.86717   0.89467
C          C       0.98364   0.13549   0.59317
C          C       0.01636   0.86451   0.90683
H          H       0.05365   0.78451   0.63054
H          H       0.94635   0.21549   0.86946
H          H       0.08713   0.66628   0.64504
H          H       0.91287   0.33372   0.85496
H          H       0.15996   0.77892   0.84602
H          H       0.84004   0.22108   0.65398
H          H       0.12632   0.89691   0.82706
H          H       0.87368   0.10309   0.67294
H          H       0.19102   0.69341   0.99081
H          H       0.80898   0.30659   0.50919
H          H       0.29257   0.55538   0.58069
H          H       0.70743   0.44462   0.91931
H          H       0.19082   0.30033   0.66131
H          H       0.80918   0.69967   0.83869
H          H       0.12486   0.08779   0.73162
H          H       0.87514   0.91221   0.76838
H          H       0.15866   0.20483   0.74421
H          H       0.84134   0.79517   0.75579
H          H       0.09196   0.32686   0.92306
H          H       0.90804   0.67314   0.57694
H          H       0.05890   0.20817   0.90098
H          H       0.94110   0.79183   0.59902
H          H       0.43185   0.28875   0.94098
H          H       0.56815   0.71125   0.55902
H          H       0.42414   0.54216   0.69552
H          H       0.57586   0.45784   0.80448
H          H       0.46036   0.64844   0.74130
H          H       0.53964   0.35156   0.75870
H          H       0.60388   0.47277   0.57859
H          H       0.39612   0.52723   0.92141
H          H       0.66180   0.46197   0.55339
H          H       0.33820   0.53803   0.94661
H          H       0.66502   0.68069   0.78616
H          H       0.33498   0.31931   0.71385
H          H       0.60573   0.69398   0.81925
H          H       0.39427   0.30602   0.68075
H          H       0.53687   0.26306   0.50660
H          H       0.46313   0.73694   0.99340
H          H       0.56065   0.13984   0.90755
H          H       0.43935   0.86016   0.59245
H          H       0.47570   0.09418   0.61477
H          H       0.52430   0.90582   0.88523
H          H       0.45208   0.21943   0.70496
H          H       0.54792   0.78057   0.79504
H          H       0.44232   0.97750   0.77023
H          H       0.55768   0.02250   0.72977
H          H       0.47706   0.99399   0.90048
H          H       0.52294   0.00601   0.59952
H          H       0.11117   0.99347   0.52790
H          H       0.88883   0.00653   0.97210
H          H       0.02910   0.18347   0.65716
H          H       0.97090   0.81653   0.84284
H          H       0.97185   0.18857   0.63275
H          H       0.02815   0.81143   0.86725
H          H       0.15112   0.49580   0.56454
H          H       0.84888   0.50420   0.93546
H          H       0.24100   0.37439   0.64342
H          H       0.75900   0.62561   0.85658
H          H       0.24113   0.62121   0.53954
H          H       0.75887   0.37879   0.96046
