data_crystal

_cell_length_a    21.13340
_cell_length_b    21.13340
_cell_length_c    9.08340
_cell_angle_alpha 90.00000
_cell_angle_beta  90.00000
_cell_angle_gamma 120.00000

_space_group_name_Hall 'P 1'
_space_group_name_H-M_alt 'P 1'

loop_
_symmetry_equiv_pos_as_xyz
 'x,y,z'

loop_
_atom_site_label
_atom_site_type_symbol
_atom_site_fract_x
_atom_site_fract_y
_atom_site_fract_z
C          C       0.63530   0.38066   0.45422
C          C       0.61934   0.25464   0.45422
C          C       0.74536   0.36470   0.45422
C          C       0.66713   0.44520   0.36925
C          C       0.55480   0.22193   0.36925
C          C       0.77807   0.33287   0.36925
C          C       0.63613   0.49022   0.36552
C          C       0.50978   0.14591   0.36552
C          C       0.85409   0.36387   0.36552
C          C       0.57332   0.47230   0.44957
C          C       0.52770   0.10102   0.44957
C          C       0.89898   0.42668   0.44957
C          C       0.54173   0.40831   0.03634
C          C       0.59169   0.13342   0.03634
C          C       0.86658   0.45827   0.03634
C          C       0.57209   0.36269   0.03719
C          C       0.63731   0.20940   0.03719
C          C       0.79060   0.42791   0.03719
C          C       0.54124   0.52037   0.44415
C          C       0.47963   0.02087   0.44415
C          C       0.97913   0.45876   0.44415
N          N       0.48939   0.51066   0.03614
N          N       0.48934   0.97873   0.03614
N          N       0.02127   0.51061   0.03614
C          C       0.45310   0.55280   0.04351
C          C       0.44720   0.90030   0.04351
C          C       0.09970   0.54690   0.04351
C          C       0.47781   0.61903   0.46588
C          C       0.38097   0.85878   0.46588
C          C       0.14122   0.52219   0.46588
C          C       0.43907   0.65665   0.47520
C          C       0.34335   0.78242   0.47520
C          C       0.21758   0.56093   0.47520
C          C       0.37510   0.62925   0.06130
C          C       0.37075   0.74585   0.06130
C          C       0.25415   0.62490   0.06130
C          C       0.35162   0.56391   0.14072
C          C       0.43609   0.78771   0.14072
C          C       0.21229   0.64838   0.14072
C          C       0.39059   0.52647   0.13262
C          C       0.47353   0.86412   0.13262
C          C       0.13588   0.60941   0.13262
H          H       0.71586   0.46039   0.30539
H          H       0.53961   0.25547   0.30539
H          H       0.74453   0.28414   0.30539
H          H       0.66125   0.53910   0.29707
H          H       0.46090   0.12215   0.29707
H          H       0.87785   0.33875   0.29707
H          H       0.49327   0.39350   0.10240
H          H       0.60650   0.09977   0.10240
H          H       0.90023   0.50673   0.10240
H          H       0.54630   0.31321   0.10225
H          H       0.68679   0.23309   0.10225
H          H       0.76691   0.45370   0.10225
H          H       0.56145   0.56293   0.36028
H          H       0.43707   0.99852   0.36028
H          H       0.00148   0.43855   0.36028
H          H       0.52665   0.64229   0.39830
H          H       0.35771   0.88436   0.39830
H          H       0.11564   0.47335   0.39830
H          H       0.45864   0.70702   0.41425
H          H       0.29298   0.75162   0.41425
H          H       0.24838   0.54136   0.41425
H          H       0.30271   0.54168   0.20755
H          H       0.45832   0.76103   0.20755
H          H       0.23897   0.69729   0.20755
H          H       0.37187   0.47616   0.19456
H          H       0.52384   0.89571   0.19456
H          H       0.10429   0.62813   0.19456
N          N       0.66667   0.33333   0.45530
N          N       0.33333   0.66667   0.06532
C          C       0.63530   0.38066   0.95422
C          C       0.61934   0.25464   0.95422
C          C       0.74536   0.36470   0.95422
C          C       0.66713   0.44520   0.86925
C          C       0.55480   0.22193   0.86925
C          C       0.77807   0.33287   0.86925
C          C       0.63613   0.49022   0.86552
C          C       0.50978   0.14591   0.86552
C          C       0.85409   0.36387   0.86552
C          C       0.57332   0.47230   0.94957
C          C       0.52770   0.10102   0.94957
C          C       0.89898   0.42668   0.94957
C          C       0.54173   0.40831   0.53634
C          C       0.59169   0.13342   0.53634
C          C       0.86658   0.45827   0.53634
C          C       0.57209   0.36269   0.53720
C          C       0.63731   0.20940   0.53720
C          C       0.79060   0.42791   0.53720
C          C       0.54124   0.52037   0.94414
C          C       0.47963   0.02087   0.94414
C          C       0.97913   0.45876   0.94414
N          N       0.48939   0.51066   0.53614
N          N       0.48934   0.97873   0.53614
N          N       0.02127   0.51061   0.53614
C          C       0.45310   0.55280   0.54351
C          C       0.44720   0.90030   0.54351
C          C       0.09970   0.54690   0.54351
C          C       0.47781   0.61903   0.96589
C          C       0.38097   0.85878   0.96589
C          C       0.14122   0.52219   0.96589
C          C       0.43907   0.65665   0.97520
C          C       0.34335   0.78242   0.97520
C          C       0.21758   0.56093   0.97520
C          C       0.37510   0.62925   0.56130
C          C       0.37075   0.74585   0.56130
C          C       0.25415   0.62490   0.56130
C          C       0.35162   0.56391   0.64072
C          C       0.43609   0.78771   0.64072
C          C       0.21229   0.64838   0.64072
C          C       0.39059   0.52647   0.63262
C          C       0.47353   0.86412   0.63262
C          C       0.13588   0.60941   0.63262
H          H       0.71586   0.46039   0.80539
H          H       0.53961   0.25547   0.80539
H          H       0.74453   0.28414   0.80539
H          H       0.66125   0.53910   0.79707
H          H       0.46090   0.12215   0.79707
H          H       0.87785   0.33875   0.79707
H          H       0.49327   0.39350   0.60240
H          H       0.60650   0.09977   0.60240
H          H       0.90023   0.50673   0.60240
H          H       0.54630   0.31321   0.60225
H          H       0.68679   0.23309   0.60225
H          H       0.76691   0.45370   0.60225
H          H       0.56145   0.56293   0.86028
H          H       0.43707   0.99852   0.86028
H          H       0.00148   0.43855   0.86028
H          H       0.52665   0.64229   0.89830
H          H       0.35771   0.88436   0.89830
H          H       0.11564   0.47335   0.89830
H          H       0.45864   0.70702   0.91425
H          H       0.29298   0.75162   0.91425
H          H       0.24838   0.54136   0.91425
H          H       0.30271   0.54168   0.70756
H          H       0.45832   0.76103   0.70756
H          H       0.23897   0.69729   0.70756
H          H       0.37187   0.47616   0.69456
H          H       0.52384   0.89571   0.69456
H          H       0.10429   0.62813   0.69456
N          N       0.66667   0.33333   0.95530
N          N       0.33333   0.66667   0.56532
