data_crystal

_cell_length_a    44.91150
_cell_length_b    44.14310
_cell_length_c    7.95580
_cell_angle_alpha 83.39840
_cell_angle_beta  96.99420
_cell_angle_gamma 120.21100

_space_group_name_Hall 'P 1'
_space_group_name_H-M_alt 'P 1'

loop_
_symmetry_equiv_pos_as_xyz
 'x,y,z'

loop_
_atom_site_label
_atom_site_type_symbol
_atom_site_fract_x
_atom_site_fract_y
_atom_site_fract_z
H          H       0.31657   0.20663   0.23859
H          H       0.89008   0.68462   0.25440
H          H       0.77530   0.13875   0.17319
H          H       0.86095   0.63625   0.46135
H          H       0.79472   0.10968   0.37690
H          H       0.36482   0.22477   0.43979
C          C       0.68563   0.36729   0.49695
N          N       0.65071   0.35012   0.47540
C          C       0.59366   0.29675   0.46607
C          C       0.68258   0.25753   0.10161
C          C       0.69968   0.23885   0.13508
C          C       0.73561   0.25602   0.16143
C          C       0.75456   0.29252   0.15143
C          C       0.73755   0.31129   0.11772
N          N       0.48385   0.24626   0.40349
C          C       0.46273   0.21425   0.35515
C          C       0.79709   0.22241   0.26387
C          C       0.77697   0.18728   0.21304
C          C       0.79112   0.16542   0.21876
C          C       0.82571   0.17823   0.27559
C          C       0.84564   0.21333   0.32870
C          C       0.83147   0.23518   0.32266
C          C       0.84110   0.15525   0.27551
C          C       0.82116   0.12014   0.32845
C          C       0.83531   0.09828   0.32215
C          C       0.86968   0.11104   0.26325
C          C       0.88982   0.14618   0.21263
C          C       0.87568   0.16806   0.21863
C          C       0.88374   0.08724   0.25105
N          N       0.91489   0.09805   0.18716
C          C       0.93110   0.07739   0.15979
C          C       0.91213   0.04089   0.15004
C          C       0.92912   0.02210   0.11617
C          C       0.96530   0.03935   0.08973
C          C       0.98408   0.07585   0.09934
C          C       0.96701   0.09455   0.13296
C          C       0.98325   0.01945   0.04954
N          N       0.96482   0.98435   0.03361
H          H       0.65472   0.24346   0.08157
H          H       0.68501   0.21078   0.14022
H          H       0.78245   0.30666   0.16527
H          H       0.75274   0.33936   0.11000
H          H       0.47244   0.19713   0.31633
H          H       0.75048   0.17695   0.16550
H          H       0.87207   0.22379   0.37714
H          H       0.84737   0.26210   0.36399
H          H       0.81939   0.07135   0.36329
H          H       0.91630   0.15650   0.16501
H          H       0.89150   0.19473   0.17316
H          H       0.86750   0.06066   0.29674
H          H       0.88425   0.02675   0.16424
H          H       0.91393   0.99404   0.10871
H          H       0.01194   0.08991   0.07898
H          H       0.98169   0.12262   0.13792
C          C       0.63193   0.31509   0.49042
N          N       0.64846   0.29713   0.02831
C          C       0.70136   0.29403   0.09168
C          C       0.74213   0.42395   0.49673
C          C       0.76084   0.46015   0.47906
C          C       0.74386   0.47881   0.44189
C          C       0.70746   0.46071   0.42603
C          C       0.68869   0.42455   0.44331
N          N       0.75184   0.23537   0.18845
C          C       0.78301   0.24620   0.25205
C          C       0.77775   0.57467   0.36010
C          C       0.81261   0.58948   0.41531
C          C       0.83441   0.62553   0.41397
C          C       0.82177   0.64749   0.35762
C          C       0.78686   0.63253   0.30194
C          C       0.76510   0.59649   0.30317
C          C       0.84484   0.68582   0.35764
C          C       0.87976   0.70077   0.30224
C          C       0.90153   0.73681   0.30363
C          C       0.88888   0.75863   0.36042
C          C       0.85400   0.74383   0.41534
C          C       0.83219   0.70778   0.41385
C          C       0.91248   0.79659   0.36282
N          N       0.90218   0.81734   0.42714
C          C       0.92276   0.85450   0.44177
C          C       0.95917   0.87259   0.42651
C          C       0.97794   0.90875   0.44356
C          C       0.96086   0.92763   0.47801
C          C       0.92450   0.90939   0.49566
C          C       0.90577   0.87319   0.47818
C          C       0.98101   0.96605   0.49597
N          N       0.01592   0.98320   0.47430
H          H       0.75601   0.41021   0.02520
H          H       0.78878   0.47394   0.49414
H          H       0.69321   0.47414   0.40300
H          H       0.66071   0.41128   0.42974
H          H       0.79924   0.27277   0.29779
H          H       0.82281   0.57312   0.46142
H          H       0.77655   0.64868   0.25394
H          H       0.73838   0.58562   0.25859
H          H       0.92827   0.74767   0.25931
H          H       0.84380   0.76020   0.46137
H          H       0.80564   0.69706   0.46105
H          H       0.93842   0.80658   0.30800
H          H       0.97343   0.85915   0.40409
H          H       0.00593   0.92201   0.43045
H          H       0.91061   0.92316   0.02346
H          H       0.87783   0.85942   0.49278
C          C       0.68340   0.31391   0.05133
N          N       0.70182   0.34901   0.03494
C          C       0.70577   0.40570   0.47857
C          C       0.57645   0.31570   0.43818
C          C       0.54041   0.29856   0.41743
C          C       0.52085   0.26234   0.42132
C          C       0.53779   0.24317   0.45031
C          C       0.57389   0.26026   0.47205
N          N       0.76444   0.51598   0.42727
C          C       0.75417   0.53671   0.36233
C          C       0.42495   0.20077   0.34762
C          C       0.41083   0.22167   0.39845
C          C       0.37496   0.20833   0.39444
C          C       0.35243   0.17380   0.33884
C          C       0.36671   0.15303   0.28645
C          C       0.40259   0.16637   0.29136
C          C       0.31422   0.15940   0.33851
C          C       0.29999   0.18019   0.28588
C          C       0.26410   0.16687   0.29032
C          C       0.24171   0.13246   0.34632
C          C       0.25579   0.11153   0.39731
C          C       0.29166   0.12486   0.39378
C          C       0.20393   0.11900   0.35350
N          N       0.18278   0.08699   0.40180
C          C       0.14578   0.07093   0.41948
C          C       0.12885   0.09012   0.44808
C          C       0.09275   0.07306   0.46988
C          C       0.07297   0.03656   0.46434
C          C       0.09017   0.01759   0.43679
C          C       0.12621   0.03471   0.41597
C          C       0.03471   0.01824   0.48883
N          N       0.01819   0.03622   0.02638
H          H       0.59089   0.34381   0.43335
H          H       0.52746   0.31343   0.39709
H          H       0.52329   0.21520   0.46061
H          H       0.58638   0.24499   0.49507
H          H       0.72827   0.52670   0.30695
H          H       0.42757   0.24819   0.44438
H          H       0.35015   0.12661   0.23888
H          H       0.41293   0.14988   0.25006
H          H       0.25380   0.18339   0.24890
H          H       0.23901   0.08501   0.44307
H          H       0.30176   0.10840   0.43934
H          H       0.19426   0.13615   0.31459
H          H       0.14335   0.11810   0.45806
H          H       0.08027   0.08833   0.49262
H          H       0.07573   0.98948   0.43230
H          H       0.13916   0.01983   0.39595
H          H       0.31657   0.20663   0.73859
H          H       0.89008   0.68462   0.75440
H          H       0.77530   0.13875   0.67319
H          H       0.86095   0.63625   0.96135
H          H       0.79472   0.10968   0.87690
H          H       0.36482   0.22477   0.93980
C          C       0.68563   0.36729   0.99695
N          N       0.65071   0.35012   0.97540
C          C       0.59366   0.29675   0.96606
C          C       0.68258   0.25753   0.60162
C          C       0.69968   0.23885   0.63508
C          C       0.73561   0.25602   0.66143
C          C       0.75456   0.29252   0.65143
C          C       0.73755   0.31129   0.61772
N          N       0.48385   0.24626   0.90349
C          C       0.46273   0.21425   0.85515
C          C       0.79709   0.22241   0.76387
C          C       0.77697   0.18728   0.71303
C          C       0.79112   0.16542   0.71876
C          C       0.82571   0.17823   0.77560
C          C       0.84564   0.21333   0.82869
C          C       0.83147   0.23518   0.82266
C          C       0.84110   0.15525   0.77551
C          C       0.82116   0.12014   0.82845
C          C       0.83531   0.09828   0.82215
C          C       0.86968   0.11104   0.76325
C          C       0.88982   0.14618   0.71262
C          C       0.87568   0.16806   0.71863
C          C       0.88374   0.08724   0.75106
N          N       0.91489   0.09805   0.68716
C          C       0.93110   0.07739   0.65979
C          C       0.91213   0.04089   0.65003
C          C       0.92912   0.02210   0.61616
C          C       0.96530   0.03935   0.58974
C          C       0.98408   0.07585   0.59934
C          C       0.96701   0.09455   0.63296
C          C       0.98325   0.01945   0.54954
N          N       0.96482   0.98435   0.53360
H          H       0.65472   0.24346   0.58157
H          H       0.68501   0.21078   0.64022
H          H       0.78245   0.30666   0.66527
H          H       0.75274   0.33936   0.61000
H          H       0.47244   0.19713   0.81633
H          H       0.75048   0.17695   0.66550
H          H       0.87207   0.22379   0.87714
H          H       0.84737   0.26210   0.86399
H          H       0.81939   0.07135   0.86329
H          H       0.91630   0.15650   0.66501
H          H       0.89150   0.19473   0.67316
H          H       0.86750   0.06066   0.79675
H          H       0.88425   0.02675   0.66424
H          H       0.91393   0.99404   0.60871
H          H       0.01194   0.08991   0.57898
H          H       0.98169   0.12262   0.63792
C          C       0.63193   0.31509   0.99042
N          N       0.64846   0.29713   0.52831
C          C       0.70136   0.29403   0.59167
C          C       0.74213   0.42395   0.99673
C          C       0.76084   0.46015   0.97906
C          C       0.74386   0.47881   0.94190
C          C       0.70746   0.46071   0.92603
C          C       0.68869   0.42455   0.94330
N          N       0.75184   0.23537   0.68845
C          C       0.78301   0.24620   0.75205
C          C       0.77775   0.57467   0.86010
C          C       0.81261   0.58948   0.91531
C          C       0.83441   0.62553   0.91397
C          C       0.82177   0.64749   0.85762
C          C       0.78686   0.63253   0.80194
C          C       0.76510   0.59649   0.80317
C          C       0.84484   0.68582   0.85764
C          C       0.87976   0.70077   0.80224
C          C       0.90153   0.73681   0.80363
C          C       0.88888   0.75863   0.86042
C          C       0.85400   0.74383   0.91534
C          C       0.83219   0.70778   0.91385
C          C       0.91248   0.79659   0.86282
N          N       0.90218   0.81734   0.92715
C          C       0.92276   0.85450   0.94176
C          C       0.95917   0.87259   0.92652
C          C       0.97794   0.90875   0.94356
C          C       0.96086   0.92763   0.97801
C          C       0.92450   0.90939   0.99566
C          C       0.90577   0.87319   0.97819
C          C       0.98101   0.96605   0.99597
N          N       0.01592   0.98320   0.97430
H          H       0.75601   0.41021   0.52520
H          H       0.78878   0.47394   0.99414
H          H       0.69321   0.47414   0.90300
H          H       0.66071   0.41128   0.92974
H          H       0.79924   0.27277   0.79778
H          H       0.82281   0.57312   0.96142
H          H       0.77655   0.64868   0.75394
H          H       0.73838   0.58562   0.75859
H          H       0.92827   0.74767   0.75931
H          H       0.84380   0.76020   0.96137
H          H       0.80564   0.69706   0.96105
H          H       0.93842   0.80658   0.80800
H          H       0.97343   0.85915   0.90409
H          H       0.00593   0.92201   0.93045
H          H       0.91061   0.92316   0.52346
H          H       0.87783   0.85942   0.99278
C          C       0.68340   0.31391   0.55134
N          N       0.70182   0.34901   0.53494
C          C       0.70577   0.40570   0.97857
C          C       0.57645   0.31570   0.93818
C          C       0.54041   0.29856   0.91743
C          C       0.52085   0.26234   0.92132
C          C       0.53779   0.24317   0.95031
C          C       0.57389   0.26026   0.97205
N          N       0.76444   0.51598   0.92727
C          C       0.75417   0.53671   0.86233
C          C       0.42495   0.20077   0.84762
C          C       0.41083   0.22167   0.89845
C          C       0.37496   0.20833   0.89444
C          C       0.35243   0.17380   0.83884
C          C       0.36671   0.15303   0.78644
C          C       0.40259   0.16637   0.79136
C          C       0.31422   0.15940   0.83851
C          C       0.29999   0.18019   0.78588
C          C       0.26410   0.16687   0.79032
C          C       0.24171   0.13246   0.84632
C          C       0.25579   0.11153   0.89731
C          C       0.29166   0.12486   0.89378
C          C       0.20393   0.11900   0.85350
N          N       0.18278   0.08699   0.90180
C          C       0.14578   0.07093   0.91948
C          C       0.12885   0.09012   0.94807
C          C       0.09275   0.07306   0.96988
C          C       0.07297   0.03656   0.96434
C          C       0.09017   0.01759   0.93679
C          C       0.12621   0.03471   0.91597
C          C       0.03471   0.01824   0.98883
N          N       0.01819   0.03622   0.52638
H          H       0.59089   0.34381   0.93335
H          H       0.52746   0.31343   0.89709
H          H       0.52329   0.21520   0.96061
H          H       0.58638   0.24499   0.99508
H          H       0.72827   0.52670   0.80695
H          H       0.42757   0.24819   0.94438
H          H       0.35015   0.12661   0.73888
H          H       0.41293   0.14988   0.75006
H          H       0.25380   0.18339   0.74890
H          H       0.23901   0.08501   0.94307
H          H       0.30176   0.10840   0.93934
H          H       0.19426   0.13615   0.81459
H          H       0.14335   0.11810   0.95806
H          H       0.08027   0.08833   0.99262
H          H       0.07573   0.98948   0.93230
H          H       0.13916   0.01983   0.89595
