data_crystal

_cell_length_a    52.24480
_cell_length_b    23.58960
_cell_length_c    7.33680
_cell_angle_alpha 90.02330
_cell_angle_beta  90.01040
_cell_angle_gamma 91.33880

_space_group_name_Hall 'P 1'
_space_group_name_H-M_alt 'P 1'

loop_
_symmetry_equiv_pos_as_xyz
 'x,y,z'

loop_
_atom_site_label
_atom_site_type_symbol
_atom_site_fract_x
_atom_site_fract_y
_atom_site_fract_z
C          C       0.09705   0.86961   0.06361
C          C       0.09125   0.81341   0.16168
C          C       0.10752   0.75970   0.16381
C          C       0.13006   0.76092   0.07059
C          C       0.13633   0.81717   0.47423
C          C       0.11993   0.87103   0.47105
C          C       0.22454   0.45331   0.15876
C          C       0.20995   0.51394   0.11608
C          C       0.20940   0.39881   0.18900
C          C       0.25395   0.44708   0.16980
C          C       0.26816   0.39445   0.13755
C          C       0.29626   0.38790   0.14894
C          C       0.31107   0.43432   0.19040
C          C       0.29734   0.48714   0.22256
C          C       0.26914   0.49320   0.21345
C          C       0.21952   0.56259   0.00342
C          C       0.20542   0.62089   0.46422
C          C       0.18125   0.63158   0.03660
C          C       0.17131   0.58296   0.14628
C          C       0.18543   0.52516   0.18464
C          C       0.18487   0.39732   0.09923
C          C       0.17049   0.34497   0.12452
C          C       0.18013   0.29247   0.24247
C          C       0.20428   0.29365   0.33553
C          C       0.21865   0.34630   0.30905
C          C       0.16664   0.69323   0.49949
C          C       0.34071   0.42630   0.19973
C          C       0.16538   0.23640   0.26751
N          N       0.14632   0.70429   0.08408
C          C       0.09705   0.08260   0.15146
C          C       0.12034   0.07366   0.25902
C          C       0.13628   0.12240   0.26780
C          C       0.12920   0.18097   0.16787
C          C       0.10626   0.18953   0.05924
C          C       0.09033   0.14092   0.05036
N          N       0.14513   0.23237   0.16608
C          C       0.46937   0.43766   0.15560
C          C       0.48839   0.48229   0.15062
C          C       0.51462   0.46972   0.10123
C          C       0.52218   0.41153   0.06580
C          C       0.50396   0.36491   0.08905
C          C       0.47770   0.37938   0.12862
C          C       0.48213   0.53848   0.19749
C          C       0.50050   0.58327   0.18390
C          C       0.52581   0.57372   0.12243
C          C       0.53336   0.51551   0.08714
C          C       0.55960   0.50290   0.03799
C          C       0.56585   0.44675   0.49096
C          C       0.54748   0.40203   0.00414
C          C       0.54406   0.62028   0.09932
C          C       0.57036   0.60571   0.06030
C          C       0.57866   0.54742   0.03349
C          C       0.51193   0.29996   0.08118
C          C       0.44035   0.45054   0.18020
C          C       0.60770   0.53418   0.01040
C          C       0.53615   0.68524   0.10696
C          C       0.62244   0.48255   0.10972
C          C       0.65026   0.47329   0.09940
C          C       0.66390   0.51636   0.49443
C          C       0.64924   0.56729   0.39220
C          C       0.62138   0.57615   0.40037
C          C       0.53519   0.26884   0.17171
C          C       0.54216   0.20711   0.16968
C          C       0.52586   0.17543   0.07914
C          C       0.50245   0.20570   0.49117
C          C       0.49543   0.26745   0.49275
C          C       0.42532   0.50189   0.08135
C          C       0.39745   0.51025   0.09217
C          C       0.38411   0.46662   0.19740
C          C       0.39909   0.41626   0.29980
C          C       0.42695   0.40823   0.29092
C          C       0.51302   0.71657   0.01540
C          C       0.50619   0.77843   0.01665
C          C       0.52246   0.80995   0.10786
C          C       0.54573   0.77942   0.19700
C          C       0.55263   0.71759   0.19594
N          N       0.35528   0.47285   0.19332
N          N       0.51537   0.87293   0.10996
N          N       0.53307   0.11252   0.07661
C          C       0.08097   0.03011   0.13423
C          C       0.05259   0.03301   0.13983
C          C       0.03817   0.98480   0.09928
C          C       0.05225   0.93267   0.06064
C          C       0.08082   0.92740   0.07201
C          C       0.09458   0.97683   0.10459
C          C       0.03832   0.08204   0.18905
C          C       0.01037   0.08584   0.18747
C          C       0.99552   0.04092   0.13574
C          C       0.00958   0.98872   0.09762
C          C       0.99512   0.94046   0.05783
C          C       0.00941   0.89147   0.00835
C          C       0.03738   0.88782   0.00879
C          C       0.96700   0.04634   0.12424
C          C       0.95309   0.99691   0.09315
C          C       0.96671   0.94329   0.06461
C          C       0.95075   0.89027   0.05023
C          C       0.92740   0.89817   0.44351
C          C       0.91185   0.84858   0.43593
C          C       0.91942   0.79019   0.03610
C          C       0.94233   0.78284   0.14455
C          C       0.95786   0.83224   0.15212
C          C       0.82398   0.51766   0.03986
C          C       0.83764   0.45604   0.08496
C          C       0.83992   0.57085   0.00830
C          C       0.79456   0.52627   0.02666
C          C       0.78107   0.58037   0.05536
C          C       0.75301   0.58925   0.04153
C          C       0.73748   0.54382   0.00103
C          C       0.75047   0.48958   0.47240
C          C       0.77864   0.48116   0.48394
C          C       0.82702   0.40873   0.19656
C          C       0.83967   0.34896   0.23452
C          C       0.86355   0.33509   0.16319
C          C       0.87479   0.38271   0.05576
C          C       0.86199   0.44209   0.01792
C          C       0.86432   0.57166   0.10014
C          C       0.87904   0.62367   0.07549
C          C       0.86980   0.67631   0.45653
C          C       0.84590   0.67541   0.36091
C          C       0.83128   0.62322   0.38636
C          C       0.87601   0.26943   0.20175
C          C       0.70790   0.55411   0.48998
C          C       0.88450   0.73252   0.43280
N          N       0.90401   0.73785   0.03794
N          N       0.69270   0.50859   0.49823
C          C       0.95131   0.10466   0.13114
C          C       0.95628   0.16241   0.03469
C          C       0.93856   0.21556   0.03431
C          C       0.91527   0.21158   0.12821
C          C       0.90955   0.15377   0.22297
C          C       0.92839   0.10903   0.20922
N          N       0.89934   0.26389   0.12147
H          H       0.07460   0.81153   0.24080
H          H       0.10311   0.71681   0.24182
H          H       0.15379   0.82005   0.40234
H          H       0.12516   0.91387   0.39687
H          H       0.25763   0.35757   0.10580
H          H       0.30647   0.34672   0.12334
H          H       0.30852   0.52327   0.25639
H          H       0.25933   0.53438   0.23905
H          H       0.23795   0.55536   0.44612
H          H       0.21331   0.65748   0.37718
H          H       0.15264   0.58990   0.20351
H          H       0.17698   0.48892   0.26683
H          H       0.17670   0.43690   0.01001
H          H       0.15189   0.34523   0.05080
H          H       0.21200   0.25388   0.42859
H          H       0.23717   0.34597   0.38099
H          H       0.17323   0.72825   0.40263
H          H       0.35020   0.38091   0.20112
H          H       0.17193   0.19919   0.37047
H          H       0.12620   0.02889   0.33586
H          H       0.15407   0.11365   0.35132
H          H       0.10117   0.23406   0.47885
H          H       0.07312   0.14834   0.46173
H          H       0.46343   0.34445   0.13916
H          H       0.46312   0.54782   0.24806
H          H       0.49487   0.62513   0.22514
H          H       0.58488   0.43738   0.44065
H          H       0.55312   0.36024   0.46260
H          H       0.58466   0.64055   0.05017
H          H       0.61255   0.45059   0.19920
H          H       0.66157   0.43431   0.17923
H          H       0.65942   0.59995   0.30637
H          H       0.61052   0.61615   0.32238
H          H       0.54759   0.29204   0.24679
H          H       0.56001   0.18355   0.24057
H          H       0.48986   0.18145   0.42024
H          H       0.47725   0.28994   0.42402
H          H       0.43501   0.53416   0.49151
H          H       0.38590   0.54884   0.01228
H          H       0.38912   0.38326   0.38592
H          H       0.43800   0.36846   0.36860
H          H       0.50065   0.69347   0.43985
H          H       0.48851   0.80224   0.44450
H          H       0.55829   0.80354   0.26841
H          H       0.57071   0.69490   0.26555
H          H       0.49872   0.89695   0.03812
H          H       0.52661   0.89588   0.18465
H          H       0.52184   0.08947   0.00219
H          H       0.54983   0.08870   0.14769
H          H       0.11637   0.97359   0.10845
H          H       0.04869   0.11742   0.23224
H          H       0.00049   0.12382   0.23042
H          H       0.99901   0.85602   0.46576
H          H       0.04726   0.84994   0.46546
H          H       0.93130   0.00045   0.09006
H          H       0.92125   0.94273   0.36593
H          H       0.89399   0.85649   0.35302
H          H       0.94779   0.73855   0.22535
H          H       0.97515   0.82558   0.23991
H          H       0.79212   0.61671   0.08579
H          H       0.74340   0.63150   0.06453
H          H       0.73874   0.45410   0.43969
H          H       0.78782   0.43890   0.46116
H          H       0.80872   0.41805   0.25288
H          H       0.83083   0.31340   0.31983
H          H       0.89322   0.37392   0.49817
H          H       0.87113   0.47716   0.43534
H          H       0.87190   0.53217   0.19200
H          H       0.89747   0.62326   0.15105
H          H       0.83849   0.71519   0.26693
H          H       0.81288   0.62394   0.31300
H          H       0.86116   0.23935   0.16238
H          H       0.69901   0.60018   0.48673
H          H       0.87841   0.76904   0.32722
H          H       0.97308   0.16628   0.45661
H          H       0.94240   0.25940   0.45876
H          H       0.89290   0.14636   0.30100
C          C       0.09705   0.86961   0.56361
C          C       0.09125   0.81341   0.66168
C          C       0.10752   0.75970   0.66381
C          C       0.13006   0.76092   0.57059
C          C       0.13633   0.81717   0.97423
C          C       0.11993   0.87103   0.97105
C          C       0.22454   0.45331   0.65876
C          C       0.20995   0.51394   0.61608
C          C       0.20940   0.39881   0.68900
C          C       0.25395   0.44708   0.66980
C          C       0.26816   0.39445   0.63755
C          C       0.29626   0.38790   0.64894
C          C       0.31107   0.43432   0.69040
C          C       0.29734   0.48714   0.72256
C          C       0.26914   0.49320   0.71345
C          C       0.21952   0.56259   0.50342
C          C       0.20542   0.62089   0.96422
C          C       0.18125   0.63158   0.53660
C          C       0.17131   0.58296   0.64628
C          C       0.18543   0.52516   0.68464
C          C       0.18487   0.39732   0.59923
C          C       0.17049   0.34497   0.62452
C          C       0.18013   0.29247   0.74247
C          C       0.20428   0.29365   0.83553
C          C       0.21865   0.34630   0.80905
C          C       0.16664   0.69323   0.99949
C          C       0.34071   0.42630   0.69973
C          C       0.16538   0.23640   0.76751
N          N       0.14632   0.70429   0.58408
C          C       0.09705   0.08260   0.65146
C          C       0.12034   0.07366   0.75902
C          C       0.13628   0.12240   0.76780
C          C       0.12920   0.18097   0.66787
C          C       0.10626   0.18953   0.55924
C          C       0.09033   0.14092   0.55036
N          N       0.14513   0.23237   0.66607
C          C       0.46937   0.43766   0.65560
C          C       0.48839   0.48229   0.65062
C          C       0.51462   0.46972   0.60123
C          C       0.52218   0.41153   0.56580
C          C       0.50396   0.36491   0.58905
C          C       0.47770   0.37938   0.62862
C          C       0.48213   0.53848   0.69749
C          C       0.50050   0.58327   0.68390
C          C       0.52581   0.57372   0.62243
C          C       0.53336   0.51551   0.58714
C          C       0.55960   0.50290   0.53799
C          C       0.56585   0.44675   0.99096
C          C       0.54748   0.40203   0.50414
C          C       0.54406   0.62028   0.59932
C          C       0.57036   0.60571   0.56030
C          C       0.57866   0.54742   0.53349
C          C       0.51193   0.29996   0.58118
C          C       0.44035   0.45054   0.68020
C          C       0.60770   0.53418   0.51040
C          C       0.53615   0.68524   0.60696
C          C       0.62244   0.48255   0.60972
C          C       0.65026   0.47329   0.59940
C          C       0.66390   0.51636   0.99443
C          C       0.64924   0.56729   0.89220
C          C       0.62138   0.57615   0.90037
C          C       0.53519   0.26884   0.67171
C          C       0.54216   0.20711   0.66968
C          C       0.52586   0.17543   0.57914
C          C       0.50245   0.20570   0.99116
C          C       0.49543   0.26745   0.99275
C          C       0.42532   0.50189   0.58135
C          C       0.39745   0.51025   0.59217
C          C       0.38411   0.46662   0.69740
C          C       0.39909   0.41626   0.79980
C          C       0.42695   0.40823   0.79092
C          C       0.51302   0.71657   0.51540
C          C       0.50619   0.77843   0.51665
C          C       0.52246   0.80995   0.60786
C          C       0.54573   0.77942   0.69700
C          C       0.55263   0.71759   0.69594
N          N       0.35528   0.47285   0.69332
N          N       0.51537   0.87293   0.60996
N          N       0.53307   0.11252   0.57661
C          C       0.08097   0.03011   0.63423
C          C       0.05259   0.03301   0.63983
C          C       0.03817   0.98480   0.59928
C          C       0.05225   0.93267   0.56064
C          C       0.08082   0.92740   0.57201
C          C       0.09458   0.97683   0.60459
C          C       0.03832   0.08204   0.68905
C          C       0.01037   0.08584   0.68747
C          C       0.99552   0.04092   0.63574
C          C       0.00958   0.98872   0.59762
C          C       0.99512   0.94046   0.55783
C          C       0.00941   0.89147   0.50835
C          C       0.03738   0.88782   0.50879
C          C       0.96700   0.04634   0.62424
C          C       0.95309   0.99691   0.59315
C          C       0.96671   0.94329   0.56461
C          C       0.95075   0.89027   0.55023
C          C       0.92740   0.89817   0.94351
C          C       0.91185   0.84858   0.93592
C          C       0.91942   0.79019   0.53610
C          C       0.94233   0.78284   0.64455
C          C       0.95786   0.83224   0.65212
C          C       0.82398   0.51766   0.53986
C          C       0.83764   0.45604   0.58496
C          C       0.83992   0.57085   0.50830
C          C       0.79456   0.52627   0.52666
C          C       0.78107   0.58037   0.55536
C          C       0.75301   0.58925   0.54153
C          C       0.73748   0.54382   0.50103
C          C       0.75047   0.48958   0.97240
C          C       0.77864   0.48116   0.98394
C          C       0.82702   0.40873   0.69656
C          C       0.83967   0.34896   0.73452
C          C       0.86355   0.33509   0.66319
C          C       0.87479   0.38271   0.55576
C          C       0.86199   0.44209   0.51792
C          C       0.86432   0.57166   0.60014
C          C       0.87904   0.62367   0.57549
C          C       0.86980   0.67631   0.95653
C          C       0.84590   0.67541   0.86091
C          C       0.83128   0.62322   0.88636
C          C       0.87601   0.26943   0.70175
C          C       0.70790   0.55411   0.98998
C          C       0.88450   0.73252   0.93280
N          N       0.90401   0.73785   0.53794
N          N       0.69270   0.50859   0.99823
C          C       0.95131   0.10466   0.63114
C          C       0.95628   0.16241   0.53469
C          C       0.93856   0.21556   0.53431
C          C       0.91527   0.21158   0.62821
C          C       0.90955   0.15377   0.72297
C          C       0.92839   0.10903   0.70922
N          N       0.89934   0.26389   0.62147
H          H       0.07460   0.81153   0.74080
H          H       0.10311   0.71681   0.74182
H          H       0.15379   0.82005   0.90234
H          H       0.12516   0.91387   0.89687
H          H       0.25763   0.35757   0.60580
H          H       0.30647   0.34672   0.62334
H          H       0.30852   0.52327   0.75639
H          H       0.25933   0.53438   0.73905
H          H       0.23795   0.55536   0.94612
H          H       0.21331   0.65748   0.87718
H          H       0.15264   0.58990   0.70351
H          H       0.17698   0.48892   0.76683
H          H       0.17670   0.43690   0.51001
H          H       0.15189   0.34523   0.55080
H          H       0.21200   0.25388   0.92860
H          H       0.23717   0.34597   0.88099
H          H       0.17323   0.72825   0.90263
H          H       0.35020   0.38091   0.70112
H          H       0.17193   0.19919   0.87047
H          H       0.12620   0.02889   0.83586
H          H       0.15407   0.11365   0.85132
H          H       0.10117   0.23406   0.97885
H          H       0.07312   0.14834   0.96173
H          H       0.46343   0.34445   0.63916
H          H       0.46312   0.54782   0.74806
H          H       0.49487   0.62513   0.72513
H          H       0.58488   0.43738   0.94064
H          H       0.55312   0.36024   0.96260
H          H       0.58466   0.64055   0.55017
H          H       0.61255   0.45059   0.69920
H          H       0.66157   0.43431   0.67923
H          H       0.65942   0.59995   0.80637
H          H       0.61052   0.61615   0.82238
H          H       0.54759   0.29204   0.74679
H          H       0.56001   0.18355   0.74057
H          H       0.48986   0.18145   0.92024
H          H       0.47725   0.28994   0.92402
H          H       0.43501   0.53416   0.99151
H          H       0.38590   0.54884   0.51228
H          H       0.38912   0.38326   0.88592
H          H       0.43800   0.36846   0.86860
H          H       0.50065   0.69347   0.93985
H          H       0.48851   0.80224   0.94450
H          H       0.55829   0.80354   0.76841
H          H       0.57071   0.69490   0.76555
H          H       0.49872   0.89695   0.53812
H          H       0.52661   0.89588   0.68465
H          H       0.52184   0.08947   0.50219
H          H       0.54983   0.08870   0.64770
H          H       0.11637   0.97359   0.60845
H          H       0.04869   0.11742   0.73224
H          H       0.00049   0.12382   0.73042
H          H       0.99901   0.85602   0.96576
H          H       0.04726   0.84994   0.96545
H          H       0.93130   0.00045   0.59006
H          H       0.92125   0.94273   0.86593
H          H       0.89399   0.85649   0.85302
H          H       0.94779   0.73855   0.72535
H          H       0.97515   0.82558   0.73991
H          H       0.79212   0.61671   0.58579
H          H       0.74340   0.63150   0.56453
H          H       0.73874   0.45410   0.93969
H          H       0.78782   0.43890   0.96115
H          H       0.80872   0.41805   0.75288
H          H       0.83083   0.31340   0.81983
H          H       0.89322   0.37392   0.99817
H          H       0.87113   0.47716   0.93535
H          H       0.87190   0.53217   0.69200
H          H       0.89747   0.62326   0.65105
H          H       0.83849   0.71519   0.76692
H          H       0.81288   0.62394   0.81300
H          H       0.86116   0.23935   0.66238
H          H       0.69901   0.60018   0.98673
H          H       0.87841   0.76904   0.82722
H          H       0.97308   0.16628   0.95661
H          H       0.94240   0.25940   0.95876
H          H       0.89290   0.14636   0.80100
