data_crystal

_cell_length_a    33.25570
_cell_length_b    33.25570
_cell_length_c    18.86060
_cell_angle_alpha 90.00000
_cell_angle_beta  90.00000
_cell_angle_gamma 120.00000

_space_group_name_Hall 'P 1'
_space_group_name_H-M_alt 'P 1'

loop_
_symmetry_equiv_pos_as_xyz
 'x,y,z'

loop_
_atom_site_label
_atom_site_type_symbol
_atom_site_fract_x
_atom_site_fract_y
_atom_site_fract_z
C          C       0.29187   0.30261   0.08493
C          C       0.69739   0.98926   0.08493
C          C       0.01074   0.70813   0.08493
C          C       0.30261   0.29187   0.41507
C          C       0.98926   0.69739   0.41507
C          C       0.70813   0.01074   0.41507
C          C       0.95854   0.63594   0.25159
C          C       0.36406   0.32259   0.25159
C          C       0.67741   0.04146   0.25159
C          C       0.96928   0.62520   0.08174
C          C       0.65593   0.03072   0.08174
C          C       0.37480   0.34407   0.08174
C          C       0.62520   0.96928   0.41826
C          C       0.03072   0.65593   0.41826
C          C       0.34407   0.37480   0.41826
C          C       0.63594   0.95854   0.24841
C          C       0.32259   0.36406   0.24841
C          C       0.04146   0.67741   0.24841
C          C       0.29251   0.26133   0.08462
C          C       0.73867   0.03118   0.08462
C          C       0.96882   0.70749   0.08462
C          C       0.26133   0.29251   0.41538
C          C       0.03118   0.73867   0.41538
C          C       0.70749   0.96882   0.41538
C          C       0.95918   0.59466   0.25129
C          C       0.40534   0.36451   0.25129
C          C       0.63549   0.04082   0.25129
C          C       0.92800   0.62584   0.08205
C          C       0.69785   0.07200   0.08205
C          C       0.37416   0.30215   0.08205
C          C       0.62584   0.92800   0.41795
C          C       0.07200   0.69785   0.41795
C          C       0.30215   0.37416   0.41795
C          C       0.59466   0.95918   0.24871
C          C       0.36451   0.40534   0.24871
C          C       0.04082   0.63549   0.24871
C          C       0.25049   0.21631   0.08471
C          C       0.78369   0.03418   0.08471
C          C       0.96582   0.74951   0.08471
C          C       0.21631   0.25049   0.41529
C          C       0.03418   0.78369   0.41529
C          C       0.74951   0.96582   0.41529
C          C       0.91716   0.54964   0.25137
C          C       0.45036   0.36751   0.25137
C          C       0.63249   0.08284   0.25137
C          C       0.88298   0.58382   0.08196
C          C       0.70085   0.11702   0.08196
C          C       0.41618   0.29915   0.08196
C          C       0.58382   0.88298   0.41804
C          C       0.11702   0.70085   0.41804
C          C       0.29915   0.41618   0.41804
C          C       0.54964   0.91716   0.24863
C          C       0.36751   0.45036   0.24863
C          C       0.08284   0.63249   0.24863
N          N       0.45669   0.33507   0.07533
N          N       0.66493   0.12162   0.07533
N          N       0.87838   0.54331   0.07533
N          N       0.33507   0.45669   0.42466
N          N       0.12162   0.66493   0.42466
N          N       0.54331   0.87838   0.42466
N          N       0.12336   0.66840   0.24200
N          N       0.33160   0.45495   0.24200
N          N       0.54505   0.87664   0.24200
N          N       0.00174   0.79002   0.09133
N          N       0.78829   0.99826   0.09133
N          N       0.20998   0.21171   0.09133
N          N       0.79002   0.00174   0.40867
N          N       0.99826   0.78829   0.40867
N          N       0.21171   0.20998   0.40867
N          N       0.66840   0.12336   0.25800
N          N       0.45495   0.33160   0.25800
N          N       0.87664   0.54505   0.25800
C          C       0.16792   0.16849   0.09291
C          C       0.83151   0.99943   0.09291
C          C       0.00057   0.83208   0.09291
C          C       0.16849   0.16792   0.40709
C          C       0.99943   0.83151   0.40709
C          C       0.83208   0.00057   0.40709
C          C       0.83459   0.50182   0.25958
C          C       0.49818   0.33276   0.25958
C          C       0.66724   0.16541   0.25958
C          C       0.83516   0.50125   0.07376
C          C       0.66610   0.16484   0.07376
C          C       0.49875   0.33390   0.07376
C          C       0.50125   0.83516   0.42624
C          C       0.16484   0.66610   0.42624
C          C       0.33390   0.49875   0.42624
C          C       0.50182   0.83459   0.24042
C          C       0.33276   0.49818   0.24042
C          C       0.16541   0.66724   0.24042
C          C       0.12691   0.16762   0.07806
C          C       0.83238   0.95929   0.07806
C          C       0.04071   0.87309   0.07806
C          C       0.16762   0.12691   0.42194
C          C       0.95929   0.83238   0.42194
C          C       0.87309   0.04071   0.42194
C          C       0.79358   0.50095   0.24473
C          C       0.49905   0.29262   0.24473
C          C       0.70738   0.20642   0.24473
C          C       0.83429   0.46024   0.08860
C          C       0.62596   0.16571   0.08860
C          C       0.53976   0.37404   0.08860
C          C       0.46024   0.83429   0.41140
C          C       0.16571   0.62596   0.41140
C          C       0.37404   0.53976   0.41140
C          C       0.50095   0.79358   0.25527
C          C       0.29262   0.49905   0.25527
C          C       0.20642   0.70738   0.25527
C          C       0.08524   0.12618   0.07788
C          C       0.87382   0.95906   0.07788
C          C       0.04094   0.91476   0.07788
C          C       0.12618   0.08524   0.42212
C          C       0.95906   0.87382   0.42212
C          C       0.91476   0.04094   0.42212
C          C       0.75191   0.45951   0.24455
C          C       0.54049   0.29239   0.24455
C          C       0.70761   0.24809   0.24455
C          C       0.79285   0.41857   0.08879
C          C       0.62573   0.20715   0.08879
C          C       0.58143   0.37427   0.08879
C          C       0.41857   0.79285   0.41121
C          C       0.20715   0.62573   0.41121
C          C       0.37427   0.58143   0.41121
C          C       0.45951   0.75191   0.25545
C          C       0.29239   0.54049   0.25545
C          C       0.24809   0.70761   0.25545
C          C       0.08399   0.08471   0.09283
C          C       0.91529   0.99928   0.09283
C          C       0.00072   0.91601   0.09283
C          C       0.08471   0.08399   0.40717
C          C       0.99928   0.91529   0.40717
C          C       0.91601   0.00072   0.40717
C          C       0.75066   0.41804   0.25950
C          C       0.58196   0.33261   0.25950
C          C       0.66739   0.24934   0.25950
C          C       0.75138   0.41732   0.07384
C          C       0.66595   0.24862   0.07384
C          C       0.58268   0.33405   0.07384
C          C       0.41732   0.75138   0.42616
C          C       0.24862   0.66595   0.42616
C          C       0.33405   0.58268   0.42616
C          C       0.41804   0.75066   0.24050
C          C       0.33261   0.58196   0.24050
C          C       0.24934   0.66739   0.24050
C          C       0.12515   0.08578   0.10902
C          C       0.91422   0.03937   0.10902
C          C       0.96063   0.87485   0.10902
C          C       0.08578   0.12515   0.39098
C          C       0.03937   0.91422   0.39098
C          C       0.87485   0.96063   0.39098
C          C       0.79182   0.41911   0.27569
C          C       0.58089   0.37270   0.27569
C          C       0.62730   0.20818   0.27569
C          C       0.75245   0.45848   0.05765
C          C       0.70604   0.24755   0.05765
C          C       0.54152   0.29396   0.05765
C          C       0.45848   0.75245   0.44235
C          C       0.24755   0.70604   0.44235
C          C       0.29396   0.54152   0.44235
C          C       0.41911   0.79182   0.22431
C          C       0.37270   0.58089   0.22431
C          C       0.20818   0.62730   0.22431
C          C       0.16660   0.12720   0.10971
C          C       0.87280   0.03940   0.10971
C          C       0.96060   0.83340   0.10971
C          C       0.12720   0.16660   0.39028
C          C       0.03940   0.87280   0.39028
C          C       0.83340   0.96060   0.39028
C          C       0.83327   0.46053   0.27638
C          C       0.53947   0.37273   0.27638
C          C       0.62727   0.16673   0.27638
C          C       0.79387   0.49993   0.05695
C          C       0.70607   0.20613   0.05695
C          C       0.50007   0.29393   0.05695
C          C       0.49993   0.79387   0.44305
C          C       0.20613   0.70607   0.44305
C          C       0.29393   0.50007   0.44305
C          C       0.46053   0.83327   0.22362
C          C       0.37273   0.53947   0.22362
C          C       0.16673   0.62727   0.22362
C          C       0.04014   0.04053   0.09199
C          C       0.95947   0.99961   0.09199
C          C       0.00039   0.95986   0.09199
C          C       0.04053   0.04014   0.40801
C          C       0.99961   0.95947   0.40801
C          C       0.95986   0.00039   0.40801
C          C       0.70681   0.37386   0.25866
C          C       0.62614   0.33294   0.25866
C          C       0.66706   0.29319   0.25866
C          C       0.70720   0.37347   0.07468
C          C       0.66628   0.29280   0.07468
C          C       0.62653   0.33372   0.07468
C          C       0.37347   0.70720   0.42532
C          C       0.29280   0.66628   0.42532
C          C       0.33372   0.62653   0.42532
C          C       0.37386   0.70681   0.24134
C          C       0.33294   0.62614   0.24134
C          C       0.29319   0.66706   0.24134
C          C       0.04024   0.00036   0.09204
C          C       0.99964   0.03988   0.09204
C          C       0.96012   0.95976   0.09204
C          C       0.00036   0.04024   0.40797
C          C       0.03988   0.99964   0.40797
C          C       0.95976   0.96012   0.40797
C          C       0.70691   0.33369   0.25870
C          C       0.66631   0.37321   0.25870
C          C       0.62679   0.29309   0.25870
C          C       0.66703   0.37357   0.07463
C          C       0.70655   0.33297   0.07463
C          C       0.62643   0.29345   0.07463
C          C       0.37357   0.66703   0.42537
C          C       0.33297   0.70655   0.42537
C          C       0.29345   0.62643   0.42537
C          C       0.33369   0.70691   0.24130
C          C       0.37321   0.66631   0.24130
C          C       0.29309   0.62679   0.24130
H          H       0.25782   0.30209   0.08646
H          H       0.69791   0.95573   0.08646
H          H       0.04427   0.74218   0.08646
H          H       0.30209   0.25782   0.41354
H          H       0.95573   0.69791   0.41354
H          H       0.74218   0.04427   0.41354
H          H       0.92449   0.63542   0.25312
H          H       0.36458   0.28906   0.25312
H          H       0.71094   0.07551   0.25312
H          H       0.96876   0.59115   0.08021
H          H       0.62240   0.03124   0.08021
H          H       0.40885   0.37760   0.08021
H          H       0.59115   0.96876   0.41979
H          H       0.03124   0.62240   0.41979
H          H       0.37760   0.40885   0.41979
H          H       0.63542   0.92449   0.24688
H          H       0.28906   0.36458   0.24688
H          H       0.07551   0.71094   0.24688
H          H       0.25270   0.18383   0.07883
H          H       0.81617   0.06887   0.07883
H          H       0.93113   0.74730   0.07883
H          H       0.18383   0.25270   0.42117
H          H       0.06887   0.81617   0.42117
H          H       0.74730   0.93113   0.42117
H          H       0.91937   0.51716   0.24549
H          H       0.48284   0.40220   0.24549
H          H       0.59780   0.08063   0.24549
H          H       0.85050   0.58603   0.08784
H          H       0.73554   0.14950   0.08784
H          H       0.41397   0.26446   0.08784
H          H       0.58603   0.85050   0.41216
H          H       0.14950   0.73554   0.41216
H          H       0.26446   0.41397   0.41216
H          H       0.51716   0.91937   0.25451
H          H       0.40220   0.48284   0.25451
H          H       0.08063   0.59780   0.25451
H          H       0.12716   0.20084   0.06595
H          H       0.79916   0.92632   0.06595
H          H       0.07368   0.87284   0.06595
H          H       0.20084   0.12716   0.43405
H          H       0.92632   0.79916   0.43405
H          H       0.87284   0.07368   0.43405
H          H       0.79383   0.53417   0.23262
H          H       0.46583   0.25965   0.23262
H          H       0.74035   0.20617   0.23262
H          H       0.86751   0.46049   0.10072
H          H       0.59299   0.13249   0.10072
H          H       0.53951   0.40701   0.10072
H          H       0.46049   0.86751   0.39928
H          H       0.13249   0.59299   0.39928
H          H       0.40701   0.53951   0.39928
H          H       0.53417   0.79383   0.26738
H          H       0.25965   0.46583   0.26738
H          H       0.20617   0.74035   0.26738
H          H       0.05203   0.12590   0.06557
H          H       0.87410   0.92613   0.06557
H          H       0.07387   0.94797   0.06557
H          H       0.12590   0.05203   0.43443
H          H       0.92613   0.87410   0.43443
H          H       0.94797   0.07387   0.43443
H          H       0.71870   0.45923   0.23224
H          H       0.54077   0.25946   0.23224
H          H       0.74054   0.28130   0.23224
H          H       0.79257   0.38536   0.10110
H          H       0.59280   0.20743   0.10110
H          H       0.61464   0.40720   0.10110
H          H       0.38536   0.79257   0.39890
H          H       0.20743   0.59280   0.39890
H          H       0.40720   0.61464   0.39890
H          H       0.45923   0.71870   0.26776
H          H       0.25946   0.54077   0.26776
H          H       0.28130   0.74054   0.26776
H          H       0.12493   0.05265   0.12174
H          H       0.94735   0.07228   0.12174
H          H       0.92772   0.87507   0.12174
H          H       0.05265   0.12493   0.37826
H          H       0.07228   0.94735   0.37826
H          H       0.87507   0.92772   0.37826
H          H       0.79160   0.38598   0.28841
H          H       0.61402   0.40561   0.28841
H          H       0.59439   0.20840   0.28841
H          H       0.71932   0.45826   0.04493
H          H       0.73895   0.28068   0.04493
H          H       0.54174   0.26105   0.04493
H          H       0.45826   0.71932   0.45507
H          H       0.28068   0.73895   0.45507
H          H       0.26105   0.54174   0.45507
H          H       0.38598   0.79160   0.21159
H          H       0.40561   0.61402   0.21159
H          H       0.20840   0.59439   0.21159
H          H       0.19950   0.12741   0.12403
H          H       0.87259   0.07209   0.12403
H          H       0.92791   0.80050   0.12403
H          H       0.12741   0.19950   0.37597
H          H       0.07209   0.87259   0.37597
H          H       0.80050   0.92791   0.37597
H          H       0.86617   0.46074   0.29070
H          H       0.53926   0.40542   0.29070
H          H       0.59458   0.13383   0.29070
H          H       0.79408   0.53283   0.04264
H          H       0.73876   0.20592   0.04264
H          H       0.46717   0.26124   0.04264
H          H       0.53283   0.79408   0.45736
H          H       0.20592   0.73876   0.45736
H          H       0.26124   0.46717   0.45736
H          H       0.46074   0.86617   0.20930
H          H       0.40542   0.53926   0.20930
H          H       0.13383   0.59458   0.20930
H          H       0.07409   0.00044   0.09212
H          H       0.99956   0.07365   0.09212
H          H       0.92635   0.92591   0.09212
H          H       0.00044   0.07409   0.40788
H          H       0.07365   0.99956   0.40788
H          H       0.92591   0.92635   0.40788
H          H       0.74076   0.33377   0.25878
H          H       0.66623   0.40698   0.25878
H          H       0.59302   0.25924   0.25878
H          H       0.66711   0.40742   0.07455
H          H       0.74032   0.33289   0.07455
H          H       0.59258   0.25968   0.07455
H          H       0.40742   0.66711   0.42545
H          H       0.33289   0.74032   0.42545
H          H       0.25968   0.59258   0.42545
H          H       0.33377   0.74076   0.24122
H          H       0.40698   0.66623   0.24122
H          H       0.25924   0.59302   0.24122
C          C       0.33333   0.26242   0.08334
C          C       0.73758   0.07091   0.08334
C          C       0.92909   0.66667   0.08334
C          C       0.26242   0.33333   0.41667
C          C       0.07091   0.73758   0.41667
C          C       0.66667   0.92909   0.41667
C          C       1.00000   0.59575   0.25000
C          C       0.40425   0.40424   0.25000
C          C       0.59576   0.00000   0.25000
C          C       0.33333   0.34415   0.08334
C          C       0.65585   0.98918   0.08334
C          C       0.01082   0.66667   0.08334
C          C       0.34415   0.33333   0.41667
C          C       0.98918   0.65585   0.41667
C          C       0.66667   0.01082   0.41667
C          C       1.00000   0.67748   0.25000
C          C       0.32252   0.32251   0.25000
C          C       0.67749   0.00000   0.25000
H          H       0.33333   0.37796   0.08334
H          H       0.62204   0.95537   0.08334
H          H       0.04463   0.66667   0.08334
H          H       0.37796   0.33333   0.41667
H          H       0.95537   0.62204   0.41667
H          H       0.66667   0.04463   0.41667
H          H       1.00000   0.71129   0.25000
H          H       0.28871   0.28870   0.25000
H          H       0.71130   0.00000   0.25000
H          H       0.33333   0.22861   0.08334
H          H       0.77139   0.10472   0.08334
H          H       0.89528   0.66667   0.08334
H          H       0.22861   0.33333   0.41667
H          H       0.10472   0.77139   0.41667
H          H       0.66667   0.89528   0.41667
H          H       1.00000   0.56194   0.25000
H          H       0.43806   0.43805   0.25000
H          H       0.56195   0.00000   0.25000
C          C       0.29187   0.30261   0.58492
C          C       0.69739   0.98926   0.58492
C          C       0.01074   0.70813   0.58492
C          C       0.30261   0.29187   0.91507
C          C       0.98926   0.69739   0.91507
C          C       0.70813   0.01074   0.91507
C          C       0.95854   0.63594   0.75159
C          C       0.36406   0.32259   0.75159
C          C       0.67741   0.04146   0.75159
C          C       0.96928   0.62520   0.58174
C          C       0.65593   0.03072   0.58174
C          C       0.37480   0.34407   0.58174
C          C       0.62520   0.96928   0.91826
C          C       0.03072   0.65593   0.91826
C          C       0.34407   0.37480   0.91826
C          C       0.63594   0.95854   0.74841
C          C       0.32259   0.36406   0.74841
C          C       0.04146   0.67741   0.74841
C          C       0.29251   0.26133   0.58462
C          C       0.73867   0.03118   0.58462
C          C       0.96882   0.70749   0.58462
C          C       0.26133   0.29251   0.91538
C          C       0.03118   0.73867   0.91538
C          C       0.70749   0.96882   0.91538
C          C       0.95918   0.59466   0.75129
C          C       0.40534   0.36451   0.75129
C          C       0.63549   0.04082   0.75129
C          C       0.92800   0.62584   0.58205
C          C       0.69785   0.07200   0.58205
C          C       0.37416   0.30215   0.58205
C          C       0.62584   0.92800   0.91795
C          C       0.07200   0.69785   0.91795
C          C       0.30215   0.37416   0.91795
C          C       0.59466   0.95918   0.74871
C          C       0.36451   0.40534   0.74871
C          C       0.04082   0.63549   0.74871
C          C       0.25049   0.21631   0.58471
C          C       0.78369   0.03418   0.58471
C          C       0.96582   0.74951   0.58471
C          C       0.21631   0.25049   0.91529
C          C       0.03418   0.78369   0.91529
C          C       0.74951   0.96582   0.91529
C          C       0.91716   0.54964   0.75137
C          C       0.45036   0.36751   0.75137
C          C       0.63249   0.08284   0.75137
C          C       0.88298   0.58382   0.58196
C          C       0.70085   0.11702   0.58196
C          C       0.41618   0.29915   0.58196
C          C       0.58382   0.88298   0.91804
C          C       0.11702   0.70085   0.91804
C          C       0.29915   0.41618   0.91804
C          C       0.54964   0.91716   0.74863
C          C       0.36751   0.45036   0.74863
C          C       0.08284   0.63249   0.74863
N          N       0.45669   0.33507   0.57534
N          N       0.66493   0.12162   0.57534
N          N       0.87838   0.54331   0.57534
N          N       0.33507   0.45669   0.92466
N          N       0.12162   0.66493   0.92466
N          N       0.54331   0.87838   0.92466
N          N       0.12336   0.66840   0.74200
N          N       0.33160   0.45495   0.74200
N          N       0.54505   0.87664   0.74200
N          N       0.00174   0.79002   0.59133
N          N       0.78829   0.99826   0.59133
N          N       0.20998   0.21171   0.59133
N          N       0.79002   0.00174   0.90867
N          N       0.99826   0.78829   0.90867
N          N       0.21171   0.20998   0.90867
N          N       0.66840   0.12336   0.75800
N          N       0.45495   0.33160   0.75800
N          N       0.87664   0.54505   0.75800
C          C       0.16792   0.16849   0.59291
C          C       0.83151   0.99943   0.59291
C          C       0.00057   0.83208   0.59291
C          C       0.16849   0.16792   0.90709
C          C       0.99943   0.83151   0.90709
C          C       0.83208   0.00057   0.90709
C          C       0.83459   0.50182   0.75958
C          C       0.49818   0.33276   0.75958
C          C       0.66724   0.16541   0.75958
C          C       0.83516   0.50125   0.57376
C          C       0.66610   0.16484   0.57376
C          C       0.49875   0.33390   0.57376
C          C       0.50125   0.83516   0.92624
C          C       0.16484   0.66610   0.92624
C          C       0.33390   0.49875   0.92624
C          C       0.50182   0.83459   0.74042
C          C       0.33276   0.49818   0.74042
C          C       0.16541   0.66724   0.74042
C          C       0.12691   0.16762   0.57806
C          C       0.83238   0.95929   0.57806
C          C       0.04071   0.87309   0.57806
C          C       0.16762   0.12691   0.92194
C          C       0.95929   0.83238   0.92194
C          C       0.87309   0.04071   0.92194
C          C       0.79358   0.50095   0.74473
C          C       0.49905   0.29262   0.74473
C          C       0.70738   0.20642   0.74473
C          C       0.83429   0.46024   0.58860
C          C       0.62596   0.16571   0.58860
C          C       0.53976   0.37404   0.58860
C          C       0.46024   0.83429   0.91140
C          C       0.16571   0.62596   0.91140
C          C       0.37404   0.53976   0.91140
C          C       0.50095   0.79358   0.75527
C          C       0.29262   0.49905   0.75527
C          C       0.20642   0.70738   0.75527
C          C       0.08524   0.12618   0.57788
C          C       0.87382   0.95906   0.57788
C          C       0.04094   0.91476   0.57788
C          C       0.12618   0.08524   0.92212
C          C       0.95906   0.87382   0.92212
C          C       0.91476   0.04094   0.92212
C          C       0.75191   0.45951   0.74455
C          C       0.54049   0.29239   0.74455
C          C       0.70761   0.24809   0.74455
C          C       0.79285   0.41857   0.58879
C          C       0.62573   0.20715   0.58879
C          C       0.58143   0.37427   0.58879
C          C       0.41857   0.79285   0.91121
C          C       0.20715   0.62573   0.91121
C          C       0.37427   0.58143   0.91121
C          C       0.45951   0.75191   0.75545
C          C       0.29239   0.54049   0.75545
C          C       0.24809   0.70761   0.75545
C          C       0.08399   0.08471   0.59283
C          C       0.91529   0.99928   0.59283
C          C       0.00072   0.91601   0.59283
C          C       0.08471   0.08399   0.90717
C          C       0.99928   0.91529   0.90717
C          C       0.91601   0.00072   0.90717
C          C       0.75066   0.41804   0.75950
C          C       0.58196   0.33261   0.75950
C          C       0.66739   0.24934   0.75950
C          C       0.75138   0.41732   0.57384
C          C       0.66595   0.24862   0.57384
C          C       0.58268   0.33405   0.57384
C          C       0.41732   0.75138   0.92616
C          C       0.24862   0.66595   0.92616
C          C       0.33405   0.58268   0.92616
C          C       0.41804   0.75066   0.74050
C          C       0.33261   0.58196   0.74050
C          C       0.24934   0.66739   0.74050
C          C       0.12515   0.08578   0.60902
C          C       0.91422   0.03937   0.60902
C          C       0.96063   0.87485   0.60902
C          C       0.08578   0.12515   0.89098
C          C       0.03937   0.91422   0.89098
C          C       0.87485   0.96063   0.89098
C          C       0.79182   0.41911   0.77569
C          C       0.58089   0.37270   0.77569
C          C       0.62730   0.20818   0.77569
C          C       0.75245   0.45848   0.55765
C          C       0.70604   0.24755   0.55765
C          C       0.54152   0.29396   0.55765
C          C       0.45848   0.75245   0.94235
C          C       0.24755   0.70604   0.94235
C          C       0.29396   0.54152   0.94235
C          C       0.41911   0.79182   0.72431
C          C       0.37270   0.58089   0.72431
C          C       0.20818   0.62730   0.72431
C          C       0.16660   0.12720   0.60972
C          C       0.87280   0.03940   0.60972
C          C       0.96060   0.83340   0.60972
C          C       0.12720   0.16660   0.89029
C          C       0.03940   0.87280   0.89029
C          C       0.83340   0.96060   0.89029
C          C       0.83327   0.46053   0.77638
C          C       0.53947   0.37273   0.77638
C          C       0.62727   0.16673   0.77638
C          C       0.79387   0.49993   0.55695
C          C       0.70607   0.20613   0.55695
C          C       0.50007   0.29393   0.55695
C          C       0.49993   0.79387   0.94305
C          C       0.20613   0.70607   0.94305
C          C       0.29393   0.50007   0.94305
C          C       0.46053   0.83327   0.72362
C          C       0.37273   0.53947   0.72362
C          C       0.16673   0.62727   0.72362
C          C       0.04014   0.04053   0.59199
C          C       0.95947   0.99961   0.59199
C          C       0.00039   0.95986   0.59199
C          C       0.04053   0.04014   0.90801
C          C       0.99961   0.95947   0.90801
C          C       0.95986   0.00039   0.90801
C          C       0.70681   0.37386   0.75866
C          C       0.62614   0.33294   0.75866
C          C       0.66706   0.29319   0.75866
C          C       0.70720   0.37347   0.57468
C          C       0.66628   0.29280   0.57468
C          C       0.62653   0.33372   0.57468
C          C       0.37347   0.70720   0.92532
C          C       0.29280   0.66628   0.92532
C          C       0.33372   0.62653   0.92532
C          C       0.37386   0.70681   0.74134
C          C       0.33294   0.62614   0.74134
C          C       0.29319   0.66706   0.74134
C          C       0.04024   0.00036   0.59203
C          C       0.99964   0.03988   0.59203
C          C       0.96012   0.95976   0.59203
C          C       0.00036   0.04024   0.90797
C          C       0.03988   0.99964   0.90797
C          C       0.95976   0.96012   0.90797
C          C       0.70691   0.33369   0.75870
C          C       0.66631   0.37321   0.75870
C          C       0.62679   0.29309   0.75870
C          C       0.66703   0.37357   0.57463
C          C       0.70655   0.33297   0.57463
C          C       0.62643   0.29345   0.57463
C          C       0.37357   0.66703   0.92537
C          C       0.33297   0.70655   0.92537
C          C       0.29345   0.62643   0.92537
C          C       0.33369   0.70691   0.74130
C          C       0.37321   0.66631   0.74130
C          C       0.29309   0.62679   0.74130
H          H       0.25782   0.30209   0.58645
H          H       0.69791   0.95573   0.58645
H          H       0.04427   0.74218   0.58645
H          H       0.30209   0.25782   0.91354
H          H       0.95573   0.69791   0.91354
H          H       0.74218   0.04427   0.91354
H          H       0.92449   0.63542   0.75312
H          H       0.36458   0.28906   0.75312
H          H       0.71094   0.07551   0.75312
H          H       0.96876   0.59115   0.58021
H          H       0.62240   0.03124   0.58021
H          H       0.40885   0.37760   0.58021
H          H       0.59115   0.96876   0.91979
H          H       0.03124   0.62240   0.91979
H          H       0.37760   0.40885   0.91979
H          H       0.63542   0.92449   0.74688
H          H       0.28906   0.36458   0.74688
H          H       0.07551   0.71094   0.74688
H          H       0.25270   0.18383   0.57883
H          H       0.81617   0.06887   0.57883
H          H       0.93113   0.74730   0.57883
H          H       0.18383   0.25270   0.92117
H          H       0.06887   0.81617   0.92117
H          H       0.74730   0.93113   0.92117
H          H       0.91937   0.51716   0.74549
H          H       0.48284   0.40220   0.74549
H          H       0.59780   0.08063   0.74549
H          H       0.85050   0.58603   0.58784
H          H       0.73554   0.14950   0.58784
H          H       0.41397   0.26446   0.58784
H          H       0.58603   0.85050   0.91216
H          H       0.14950   0.73554   0.91216
H          H       0.26446   0.41397   0.91216
H          H       0.51716   0.91937   0.75451
H          H       0.40220   0.48284   0.75451
H          H       0.08063   0.59780   0.75451
H          H       0.12716   0.20084   0.56595
H          H       0.79916   0.92632   0.56595
H          H       0.07368   0.87284   0.56595
H          H       0.20084   0.12716   0.93405
H          H       0.92632   0.79916   0.93405
H          H       0.87284   0.07368   0.93405
H          H       0.79383   0.53417   0.73262
H          H       0.46583   0.25965   0.73262
H          H       0.74035   0.20617   0.73262
H          H       0.86751   0.46049   0.60072
H          H       0.59299   0.13249   0.60072
H          H       0.53951   0.40701   0.60072
H          H       0.46049   0.86751   0.89928
H          H       0.13249   0.59299   0.89928
H          H       0.40701   0.53951   0.89928
H          H       0.53417   0.79383   0.76738
H          H       0.25965   0.46583   0.76738
H          H       0.20617   0.74035   0.76738
H          H       0.05203   0.12590   0.56557
H          H       0.87410   0.92613   0.56557
H          H       0.07387   0.94797   0.56557
H          H       0.12590   0.05203   0.93443
H          H       0.92613   0.87410   0.93443
H          H       0.94797   0.07387   0.93443
H          H       0.71870   0.45923   0.73224
H          H       0.54077   0.25946   0.73224
H          H       0.74054   0.28130   0.73224
H          H       0.79257   0.38536   0.60110
H          H       0.59280   0.20743   0.60110
H          H       0.61464   0.40720   0.60110
H          H       0.38536   0.79257   0.89890
H          H       0.20743   0.59280   0.89890
H          H       0.40720   0.61464   0.89890
H          H       0.45923   0.71870   0.76776
H          H       0.25946   0.54077   0.76776
H          H       0.28130   0.74054   0.76776
H          H       0.12493   0.05265   0.62174
H          H       0.94735   0.07228   0.62174
H          H       0.92772   0.87507   0.62174
H          H       0.05265   0.12493   0.87826
H          H       0.07228   0.94735   0.87826
H          H       0.87507   0.92772   0.87826
H          H       0.79160   0.38598   0.78841
H          H       0.61402   0.40561   0.78841
H          H       0.59439   0.20840   0.78841
H          H       0.71932   0.45826   0.54493
H          H       0.73895   0.28068   0.54493
H          H       0.54174   0.26105   0.54493
H          H       0.45826   0.71932   0.95507
H          H       0.28068   0.73895   0.95507
H          H       0.26105   0.54174   0.95507
H          H       0.38598   0.79160   0.71159
H          H       0.40561   0.61402   0.71159
H          H       0.20840   0.59439   0.71159
H          H       0.19950   0.12741   0.62403
H          H       0.87259   0.07209   0.62403
H          H       0.92791   0.80050   0.62403
H          H       0.12741   0.19950   0.87597
H          H       0.07209   0.87259   0.87597
H          H       0.80050   0.92791   0.87597
H          H       0.86617   0.46074   0.79070
H          H       0.53926   0.40542   0.79070
H          H       0.59458   0.13383   0.79070
H          H       0.79408   0.53283   0.54264
H          H       0.73876   0.20592   0.54264
H          H       0.46717   0.26124   0.54264
H          H       0.53283   0.79408   0.95736
H          H       0.20592   0.73876   0.95736
H          H       0.26124   0.46717   0.95736
H          H       0.46074   0.86617   0.70930
H          H       0.40542   0.53926   0.70930
H          H       0.13383   0.59458   0.70930
H          H       0.07409   0.00044   0.59211
H          H       0.99956   0.07365   0.59211
H          H       0.92635   0.92591   0.59211
H          H       0.00044   0.07409   0.90789
H          H       0.07365   0.99956   0.90789
H          H       0.92591   0.92635   0.90789
H          H       0.74076   0.33377   0.75878
H          H       0.66623   0.40698   0.75878
H          H       0.59302   0.25924   0.75878
H          H       0.66711   0.40742   0.57455
H          H       0.74032   0.33289   0.57455
H          H       0.59258   0.25968   0.57455
H          H       0.40742   0.66711   0.92545
H          H       0.33289   0.74032   0.92545
H          H       0.25968   0.59258   0.92545
H          H       0.33377   0.74076   0.74122
H          H       0.40698   0.66623   0.74122
H          H       0.25924   0.59302   0.74122
C          C       0.33333   0.26242   0.58334
C          C       0.73758   0.07091   0.58334
C          C       0.92909   0.66667   0.58334
C          C       0.26242   0.33333   0.91666
C          C       0.07091   0.73758   0.91666
C          C       0.66667   0.92909   0.91666
C          C       1.00000   0.59575   0.75000
C          C       0.40425   0.40424   0.75000
C          C       0.59576   0.00000   0.75000
C          C       0.33333   0.34415   0.58334
C          C       0.65585   0.98918   0.58334
C          C       0.01082   0.66667   0.58334
C          C       0.34415   0.33333   0.91666
C          C       0.98918   0.65585   0.91666
C          C       0.66667   0.01082   0.91666
C          C       1.00000   0.67748   0.75000
C          C       0.32252   0.32251   0.75000
C          C       0.67749   0.00000   0.75000
H          H       0.33333   0.37796   0.58334
H          H       0.62204   0.95537   0.58334
H          H       0.04463   0.66667   0.58334
H          H       0.37796   0.33333   0.91666
H          H       0.95537   0.62204   0.91666
H          H       0.66667   0.04463   0.91666
H          H       1.00000   0.71129   0.75000
H          H       0.28871   0.28870   0.75000
H          H       0.71130   0.00000   0.75000
H          H       0.33333   0.22861   0.58334
H          H       0.77139   0.10472   0.58334
H          H       0.89528   0.66667   0.58334
H          H       0.22861   0.33333   0.91666
H          H       0.10472   0.77139   0.91666
H          H       0.66667   0.89528   0.91666
H          H       1.00000   0.56194   0.75000
H          H       0.43806   0.43805   0.75000
H          H       0.56195   0.00000   0.75000
