data_crystal

_cell_length_a    36.87580
_cell_length_b    36.87580
_cell_length_c    13.95860
_cell_angle_alpha 90.00000
_cell_angle_beta  90.00000
_cell_angle_gamma 120.00000

_space_group_name_Hall 'P 1'
_space_group_name_H-M_alt 'P 1'

loop_
_symmetry_equiv_pos_as_xyz
 'x,y,z'

loop_
_atom_site_label
_atom_site_type_symbol
_atom_site_fract_x
_atom_site_fract_y
_atom_site_fract_z
C          C       0.66100   0.59455   0.03679
C          C       0.40545   0.06645   0.37012
C          C       0.93355   0.33900   0.20346
C          C       0.59455   0.66100   0.46321
C          C       0.06645   0.40545   0.12988
C          C       0.33900   0.93355   0.29654
C          C       0.66077   0.55545   0.06563
C          C       0.44455   0.10532   0.39896
C          C       0.89468   0.33923   0.23229
C          C       0.55545   0.66077   0.43438
C          C       0.10532   0.44455   0.10104
C          C       0.33923   0.89468   0.26771
C          C       0.70173   0.55687   0.06707
C          C       0.44313   0.14486   0.40040
C          C       0.85514   0.29827   0.23374
C          C       0.55687   0.70173   0.43293
C          C       0.14486   0.44313   0.09960
C          C       0.29827   0.85514   0.26626
C          C       0.74198   0.59478   0.04206
C          C       0.40522   0.14720   0.37540
C          C       0.85280   0.25802   0.20873
C          C       0.59478   0.74198   0.45793
C          C       0.14720   0.40522   0.12460
C          C       0.25802   0.85280   0.29127
C          C       0.74023   0.63291   0.01380
C          C       0.36709   0.10732   0.34713
C          C       0.89268   0.25977   0.18047
C          C       0.63291   0.74023   0.48620
C          C       0.10732   0.36709   0.15287
C          C       0.25977   0.89268   0.31953
C          C       0.70023   0.63274   0.01086
C          C       0.36726   0.06749   0.34419
C          C       0.93251   0.29977   0.17753
C          C       0.63274   0.70023   0.48914
C          C       0.06749   0.36726   0.15581
C          C       0.29977   0.93251   0.32247
C          C       0.62063   0.51469   0.09294
C          C       0.48531   0.10594   0.42628
C          C       0.89406   0.37937   0.25961
C          C       0.51469   0.62063   0.40706
C          C       0.10594   0.48531   0.07372
C          C       0.37937   0.89406   0.24039
C          C       0.78303   0.59349   0.04612
C          C       0.40651   0.18954   0.37945
C          C       0.81046   0.21697   0.21278
C          C       0.59349   0.78303   0.45388
C          C       0.18954   0.40651   0.12055
C          C       0.21697   0.81046   0.28722
N          N       0.82044   0.62977   0.03089
N          N       0.37023   0.19067   0.36423
N          N       0.80933   0.17956   0.19756
N          N       0.62977   0.82044   0.46911
N          N       0.19067   0.37023   0.13577
N          N       0.17956   0.80933   0.30244
N          N       0.58271   0.51349   0.09150
N          N       0.48651   0.06922   0.42483
N          N       0.93078   0.41729   0.25816
N          N       0.51349   0.58271   0.40851
N          N       0.06922   0.48651   0.07517
N          N       0.41729   0.93078   0.24184
C          C       0.54002   0.47642   0.10515
C          C       0.52358   0.06360   0.43849
C          C       0.93640   0.45998   0.27182
C          C       0.47642   0.54002   0.39485
C          C       0.06360   0.52358   0.06151
C          C       0.45998   0.93640   0.22818
C          C       0.86363   0.63598   0.03372
C          C       0.36402   0.22765   0.36705
C          C       0.77235   0.13637   0.20038
C          C       0.63598   0.86363   0.46629
C          C       0.22765   0.36402   0.13295
C          C       0.13637   0.77235   0.29962
C          C       0.50348   0.48305   0.11560
C          C       0.51695   0.02043   0.44893
C          C       0.97957   0.49652   0.28226
C          C       0.48305   0.50348   0.38440
C          C       0.02043   0.51695   0.05107
C          C       0.49652   0.97957   0.21774
C          C       0.46075   0.44793   0.12464
C          C       0.55207   0.01282   0.45797
C          C       0.98718   0.53925   0.29131
C          C       0.44793   0.46075   0.37536
C          C       0.01282   0.55207   0.04203
C          C       0.53925   0.98718   0.20869
C          C       0.45268   0.40346   0.12323
C          C       0.59654   0.04922   0.45656
C          C       0.95078   0.54732   0.28990
C          C       0.40346   0.45268   0.37677
C          C       0.04922   0.59654   0.04344
C          C       0.54732   0.95078   0.21010
C          C       0.48977   0.39663   0.11612
C          C       0.60337   0.09314   0.44945
C          C       0.90686   0.51023   0.28279
C          C       0.39663   0.48977   0.38388
C          C       0.09314   0.60337   0.05055
C          C       0.51023   0.90686   0.21721
C          C       0.53204   0.43247   0.10630
C          C       0.56753   0.09957   0.43963
C          C       0.90043   0.46796   0.27296
C          C       0.43247   0.53204   0.39370
C          C       0.09957   0.56753   0.06037
C          C       0.46796   0.90043   0.22704
C          C       0.87205   0.60032   0.03514
C          C       0.39968   0.27173   0.36847
C          C       0.72827   0.12795   0.20181
C          C       0.60032   0.87205   0.46486
C          C       0.27173   0.39968   0.13153
C          C       0.12795   0.72827   0.29819
C          C       0.91471   0.60741   0.03759
C          C       0.39259   0.30730   0.37092
C          C       0.69270   0.08529   0.20425
C          C       0.60741   0.91471   0.46242
C          C       0.30730   0.39259   0.12908
C          C       0.08529   0.69270   0.29575
C          C       0.95159   0.65162   0.03886
C          C       0.34838   0.29997   0.37219
C          C       0.70003   0.04841   0.20553
C          C       0.65162   0.95159   0.46114
C          C       0.29997   0.34838   0.12781
C          C       0.04841   0.70003   0.29447
C          C       0.94317   0.68778   0.03759
C          C       0.31222   0.25539   0.37092
C          C       0.74461   0.05683   0.20425
C          C       0.68778   0.94317   0.46242
C          C       0.25539   0.31222   0.12908
C          C       0.05683   0.74461   0.29575
C          C       0.90009   0.67950   0.03470
C          C       0.32050   0.22059   0.36803
C          C       0.77941   0.09991   0.20137
C          C       0.67950   0.90009   0.46530
C          C       0.22059   0.32050   0.13197
C          C       0.09991   0.77941   0.29863
C          C       0.40967   0.36762   0.12452
C          C       0.63238   0.04205   0.45785
C          C       0.95795   0.59033   0.29119
C          C       0.36762   0.40967   0.37548
C          C       0.04205   0.63238   0.04215
C          C       0.59033   0.95795   0.20881
C          C       0.99471   0.65918   0.04072
C          C       0.34082   0.33553   0.37406
C          C       0.66447   0.00529   0.20739
C          C       0.65918   0.99471   0.45927
C          C       0.33553   0.34082   0.12594
C          C       0.00529   0.66447   0.29261
N          N       0.40466   0.32673   0.12225
N          N       0.67327   0.07793   0.45558
N          N       0.92207   0.59534   0.28891
N          N       0.32673   0.40466   0.37776
N          N       0.07793   0.67327   0.04442
N          N       0.59534   0.92207   0.21109
N          N       0.02795   0.70152   0.04270
N          N       0.29848   0.32643   0.37603
N          N       0.67357   0.97205   0.20937
N          N       0.70152   0.02795   0.45730
N          N       0.32643   0.29848   0.12397
N          N       0.97205   0.67357   0.29063
H          H       0.63008   0.59581   0.03438
H          H       0.40419   0.03427   0.36772
H          H       0.96573   0.36992   0.20105
H          H       0.59581   0.63008   0.46562
H          H       0.03427   0.40419   0.13228
H          H       0.36992   0.96573   0.29895
H          H       0.70237   0.52676   0.08951
H          H       0.47324   0.17561   0.42284
H          H       0.82439   0.29763   0.25618
H          H       0.52676   0.70237   0.41049
H          H       0.17561   0.47324   0.07716
H          H       0.29763   0.82439   0.24382
H          H       0.77053   0.66388   0.49329
H          H       0.33612   0.10665   0.32663
H          H       0.89335   0.22947   0.15996
H          H       0.66388   0.77053   0.00671
H          H       0.10665   0.33612   0.17337
H          H       0.22947   0.89335   0.34004
H          H       0.69986   0.66300   0.48824
H          H       0.33700   0.03686   0.32158
H          H       0.96314   0.30014   0.15491
H          H       0.66300   0.69986   0.01175
H          H       0.03686   0.33700   0.17842
H          H       0.30014   0.96314   0.34509
H          H       0.62414   0.48570   0.11115
H          H       0.51430   0.13844   0.44448
H          H       0.86156   0.37586   0.27782
H          H       0.48570   0.62414   0.38885
H          H       0.13844   0.51430   0.05552
H          H       0.37586   0.86156   0.22218
H          H       0.78061   0.56148   0.06456
H          H       0.43852   0.21913   0.39789
H          H       0.78087   0.21939   0.23122
H          H       0.56148   0.78061   0.43544
H          H       0.21913   0.43852   0.10211
H          H       0.21939   0.78087   0.26878
H          H       0.50878   0.51703   0.11511
H          H       0.48297   0.99175   0.44844
H          H       0.00825   0.49122   0.28178
H          H       0.51703   0.50878   0.38489
H          H       0.99175   0.48297   0.05156
H          H       0.49122   0.00825   0.21822
H          H       0.43302   0.45461   0.13025
H          H       0.54539   0.97841   0.46358
H          H       0.02159   0.56698   0.29692
H          H       0.45461   0.43302   0.36975
H          H       0.97841   0.54539   0.03642
H          H       0.56698   0.02159   0.20308
H          H       0.48481   0.36278   0.11480
H          H       0.63722   0.12203   0.44813
H          H       0.87797   0.51519   0.28147
H          H       0.36278   0.48481   0.38520
H          H       0.12203   0.63722   0.05187
H          H       0.51519   0.87797   0.21853
H          H       0.55964   0.42584   0.09795
H          H       0.57416   0.13380   0.43128
H          H       0.86620   0.44036   0.26461
H          H       0.42584   0.55964   0.40205
H          H       0.13380   0.57416   0.06872
H          H       0.44036   0.86620   0.23539
H          H       0.84448   0.56585   0.03374
H          H       0.43415   0.27863   0.36707
H          H       0.72137   0.15552   0.20041
H          H       0.56585   0.84448   0.46626
H          H       0.27863   0.43415   0.13293
H          H       0.15552   0.72137   0.29959
H          H       0.91995   0.57870   0.03843
H          H       0.42130   0.34125   0.37177
H          H       0.65875   0.08005   0.20510
H          H       0.57870   0.91995   0.46157
H          H       0.34125   0.42130   0.12823
H          H       0.08005   0.65875   0.29490
H          H       0.97082   0.72230   0.03835
H          H       0.27770   0.24852   0.37168
H          H       0.75148   0.02918   0.20502
H          H       0.72230   0.97082   0.46165
H          H       0.24852   0.27770   0.12832
H          H       0.02918   0.75148   0.29498
H          H       0.89419   0.70777   0.03347
H          H       0.29223   0.18642   0.36680
H          H       0.81358   0.10581   0.20014
H          H       0.70777   0.89419   0.46653
H          H       0.18642   0.29223   0.13320
H          H       0.10581   0.81358   0.29986
N          N       0.37642   0.37668   0.12640
N          N       0.62332   0.99974   0.45973
N          N       0.00026   0.62358   0.29306
N          N       0.37668   0.37642   0.37360
N          N       0.99974   0.62332   0.04027
N          N       0.62358   0.00026   0.20694
C          C       0.33952   0.03983   0.09104
C          C       0.96017   0.29969   0.42437
C          C       0.70031   0.66048   0.25771
C          C       0.03983   0.33952   0.40896
C          C       0.29969   0.96017   0.07563
C          C       0.66048   0.70031   0.24229
C          C       0.29952   0.04083   0.09110
C          C       0.95917   0.25869   0.42443
C          C       0.74131   0.70048   0.25777
C          C       0.04083   0.29952   0.40890
C          C       0.25869   0.95917   0.07557
C          C       0.70048   0.74131   0.24223
C          C       0.29754   0.08149   0.09860
C          C       0.91851   0.21605   0.43193
C          C       0.78395   0.70246   0.26527
C          C       0.08149   0.29754   0.40140
C          C       0.21605   0.91851   0.06807
C          C       0.70246   0.78395   0.23473
N          N       0.21478   0.88068   0.06043
N          N       0.11932   0.33410   0.39376
N          N       0.66590   0.78522   0.22710
N          N       0.88068   0.21478   0.43957
N          N       0.33410   0.11932   0.10624
N          N       0.78522   0.66590   0.27290
C          C       0.33992   0.16240   0.11194
C          C       0.83760   0.17752   0.44527
C          C       0.82248   0.66008   0.27861
C          C       0.16240   0.33992   0.38806
C          C       0.17752   0.83760   0.05473
C          C       0.66008   0.82248   0.22139
C          C       0.38328   0.19907   0.11565
C          C       0.80093   0.18421   0.44898
C          C       0.81579   0.61672   0.28232
C          C       0.19907   0.38328   0.38435
C          C       0.18421   0.80093   0.05102
C          C       0.61672   0.81579   0.21768
C          C       0.39127   0.24206   0.11920
C          C       0.75794   0.14921   0.45253
C          C       0.85079   0.60873   0.28587
C          C       0.24206   0.39127   0.38080
C          C       0.14921   0.75794   0.04747
C          C       0.60873   0.85079   0.21413
C          C       0.35496   0.25030   0.12009
C          C       0.74970   0.10466   0.45343
C          C       0.89534   0.64504   0.28676
C          C       0.25030   0.35496   0.37990
C          C       0.10466   0.74970   0.04657
C          C       0.64504   0.89534   0.21324
C          C       0.31088   0.21316   0.11804
C          C       0.78684   0.09772   0.45138
C          C       0.90228   0.68912   0.28471
C          C       0.21316   0.31088   0.38195
C          C       0.09772   0.78684   0.04862
C          C       0.68912   0.90228   0.21529
C          C       0.30410   0.17060   0.11366
C          C       0.82940   0.13350   0.44699
C          C       0.86650   0.69590   0.28033
C          C       0.17060   0.30410   0.38634
C          C       0.13350   0.82940   0.05301
C          C       0.69590   0.86650   0.21967
C          C       0.36229   0.29338   0.12234
C          C       0.70662   0.06891   0.45567
C          C       0.93109   0.63771   0.28901
C          C       0.29338   0.36229   0.37766
C          C       0.06891   0.70662   0.04433
C          C       0.63771   0.93109   0.21099
H          H       0.37174   0.07071   0.09662
H          H       0.92929   0.30103   0.42995
H          H       0.69897   0.62826   0.26329
H          H       0.07071   0.37174   0.40338
H          H       0.30103   0.92929   0.07005
H          H       0.62826   0.69897   0.23671
H          H       0.26443   0.07832   0.09645
H          H       0.92168   0.18611   0.42978
H          H       0.81389   0.73557   0.26312
H          H       0.07832   0.26443   0.40355
H          H       0.18611   0.92168   0.07022
H          H       0.73557   0.81389   0.23688
H          H       0.41168   0.19335   0.11493
H          H       0.80665   0.21833   0.44826
H          H       0.78167   0.58832   0.28160
H          H       0.19335   0.41168   0.38507
H          H       0.21833   0.80665   0.05174
H          H       0.58832   0.78167   0.21840
H          H       0.42574   0.26974   0.12115
H          H       0.73026   0.15600   0.45448
H          H       0.84400   0.57426   0.28781
H          H       0.26974   0.42574   0.37886
H          H       0.15600   0.73026   0.04552
H          H       0.57426   0.84400   0.21219
H          H       0.28208   0.21824   0.11882
H          H       0.78176   0.06384   0.45215
H          H       0.93616   0.71792   0.28548
H          H       0.21824   0.28208   0.38118
H          H       0.06384   0.78176   0.04785
H          H       0.71792   0.93616   0.21452
H          H       0.26973   0.14289   0.11126
H          H       0.85711   0.12684   0.44459
H          H       0.87316   0.73027   0.27793
H          H       0.14289   0.26973   0.38874
H          H       0.12684   0.85711   0.05541
H          H       0.73027   0.87316   0.22207
C          C       0.26006   0.00000   0.08334
C          C       0.00000   0.26006   0.41667
C          C       0.73994   0.73994   0.25000
C          C       0.33960   0.00000   0.08334
C          C       0.00000   0.33960   0.41667
C          C       0.66040   0.66040   0.25000
H          H       0.22846   0.00000   0.08334
H          H       0.00000   0.22846   0.41667
H          H       0.77154   0.77154   0.25000
H          H       0.37125   0.00000   0.08334
H          H       0.00000   0.37125   0.41667
H          H       0.62875   0.62875   0.25000
C          C       0.66100   0.59455   0.53679
C          C       0.40545   0.06645   0.87012
C          C       0.93355   0.33900   0.70346
C          C       0.59455   0.66100   0.96321
C          C       0.06645   0.40545   0.62988
C          C       0.33900   0.93355   0.79654
C          C       0.66077   0.55545   0.56563
C          C       0.44455   0.10532   0.89896
C          C       0.89468   0.33923   0.73229
C          C       0.55545   0.66077   0.93437
C          C       0.10532   0.44455   0.60104
C          C       0.33923   0.89468   0.76771
C          C       0.70173   0.55687   0.56707
C          C       0.44313   0.14486   0.90040
C          C       0.85514   0.29827   0.73374
C          C       0.55687   0.70173   0.93293
C          C       0.14486   0.44313   0.59960
C          C       0.29827   0.85514   0.76626
C          C       0.74198   0.59478   0.54207
C          C       0.40522   0.14720   0.87540
C          C       0.85280   0.25802   0.70873
C          C       0.59478   0.74198   0.95793
C          C       0.14720   0.40522   0.62460
C          C       0.25802   0.85280   0.79127
C          C       0.74023   0.63291   0.51380
C          C       0.36709   0.10732   0.84713
C          C       0.89268   0.25977   0.68047
C          C       0.63291   0.74023   0.98620
C          C       0.10732   0.36709   0.65287
C          C       0.25977   0.89268   0.81953
C          C       0.70023   0.63274   0.51086
C          C       0.36726   0.06749   0.84419
C          C       0.93251   0.29977   0.67753
C          C       0.63274   0.70023   0.98914
C          C       0.06749   0.36726   0.65581
C          C       0.29977   0.93251   0.82247
C          C       0.62063   0.51469   0.59294
C          C       0.48531   0.10594   0.92628
C          C       0.89406   0.37937   0.75961
C          C       0.51469   0.62063   0.90706
C          C       0.10594   0.48531   0.57372
C          C       0.37937   0.89406   0.74039
C          C       0.78303   0.59349   0.54612
C          C       0.40651   0.18954   0.87945
C          C       0.81046   0.21697   0.71278
C          C       0.59349   0.78303   0.95388
C          C       0.18954   0.40651   0.62055
C          C       0.21697   0.81046   0.78722
N          N       0.82044   0.62977   0.53090
N          N       0.37023   0.19067   0.86423
N          N       0.80933   0.17956   0.69756
N          N       0.62977   0.82044   0.96911
N          N       0.19067   0.37023   0.63577
N          N       0.17956   0.80933   0.80244
N          N       0.58271   0.51349   0.59149
N          N       0.48651   0.06922   0.92483
N          N       0.93078   0.41729   0.75816
N          N       0.51349   0.58271   0.90851
N          N       0.06922   0.48651   0.57517
N          N       0.41729   0.93078   0.74184
C          C       0.54002   0.47642   0.60515
C          C       0.52358   0.06360   0.93849
C          C       0.93640   0.45998   0.77182
C          C       0.47642   0.54002   0.89484
C          C       0.06360   0.52358   0.56151
C          C       0.45998   0.93640   0.72818
C          C       0.86363   0.63598   0.53371
C          C       0.36402   0.22765   0.86705
C          C       0.77235   0.13637   0.70038
C          C       0.63598   0.86363   0.96629
C          C       0.22765   0.36402   0.63295
C          C       0.13637   0.77235   0.79962
C          C       0.50348   0.48305   0.61560
C          C       0.51695   0.02043   0.94893
C          C       0.97957   0.49652   0.78226
C          C       0.48305   0.50348   0.88440
C          C       0.02043   0.51695   0.55107
C          C       0.49652   0.97957   0.71774
C          C       0.46075   0.44793   0.62464
C          C       0.55207   0.01282   0.95797
C          C       0.98718   0.53925   0.79131
C          C       0.44793   0.46075   0.87536
C          C       0.01282   0.55207   0.54203
C          C       0.53925   0.98718   0.70869
C          C       0.45268   0.40346   0.62323
C          C       0.59654   0.04922   0.95656
C          C       0.95078   0.54732   0.78990
C          C       0.40346   0.45268   0.87677
C          C       0.04922   0.59654   0.54344
C          C       0.54732   0.95078   0.71010
C          C       0.48977   0.39663   0.61612
C          C       0.60337   0.09314   0.94945
C          C       0.90686   0.51023   0.78279
C          C       0.39663   0.48977   0.88388
C          C       0.09314   0.60337   0.55055
C          C       0.51023   0.90686   0.71721
C          C       0.53204   0.43247   0.60630
C          C       0.56753   0.09957   0.93963
C          C       0.90043   0.46796   0.77296
C          C       0.43247   0.53204   0.89370
C          C       0.09957   0.56753   0.56037
C          C       0.46796   0.90043   0.72704
C          C       0.87205   0.60032   0.53514
C          C       0.39968   0.27173   0.86847
C          C       0.72827   0.12795   0.70181
C          C       0.60032   0.87205   0.96486
C          C       0.27173   0.39968   0.63153
C          C       0.12795   0.72827   0.79819
C          C       0.91471   0.60741   0.53758
C          C       0.39259   0.30730   0.87092
C          C       0.69270   0.08529   0.70425
C          C       0.60741   0.91471   0.96241
C          C       0.30730   0.39259   0.62908
C          C       0.08529   0.69270   0.79575
C          C       0.95159   0.65162   0.53886
C          C       0.34838   0.29997   0.87219
C          C       0.70003   0.04841   0.70553
C          C       0.65162   0.95159   0.96114
C          C       0.29997   0.34838   0.62781
C          C       0.04841   0.70003   0.79447
C          C       0.94317   0.68778   0.53758
C          C       0.31222   0.25539   0.87092
C          C       0.74461   0.05683   0.70425
C          C       0.68778   0.94317   0.96241
C          C       0.25539   0.31222   0.62908
C          C       0.05683   0.74461   0.79575
C          C       0.90009   0.67950   0.53470
C          C       0.32050   0.22059   0.86803
C          C       0.77941   0.09991   0.70137
C          C       0.67950   0.90009   0.96530
C          C       0.22059   0.32050   0.63197
C          C       0.09991   0.77941   0.79863
C          C       0.40967   0.36762   0.62452
C          C       0.63238   0.04205   0.95785
C          C       0.95795   0.59033   0.79119
C          C       0.36762   0.40967   0.87548
C          C       0.04205   0.63238   0.54215
C          C       0.59033   0.95795   0.70881
C          C       0.99471   0.65918   0.54073
C          C       0.34082   0.33553   0.87406
C          C       0.66447   0.00529   0.70739
C          C       0.65918   0.99471   0.95927
C          C       0.33553   0.34082   0.62594
C          C       0.00529   0.66447   0.79261
N          N       0.40466   0.32673   0.62224
N          N       0.67327   0.07793   0.95558
N          N       0.92207   0.59534   0.78891
N          N       0.32673   0.40466   0.87776
N          N       0.07793   0.67327   0.54442
N          N       0.59534   0.92207   0.71109
N          N       0.02795   0.70152   0.54270
N          N       0.29848   0.32643   0.87603
N          N       0.67357   0.97205   0.70937
N          N       0.70152   0.02795   0.95730
N          N       0.32643   0.29848   0.62397
N          N       0.97205   0.67357   0.79063
H          H       0.63008   0.59581   0.53438
H          H       0.40419   0.03427   0.86772
H          H       0.96573   0.36992   0.70105
H          H       0.59581   0.63008   0.96562
H          H       0.03427   0.40419   0.63228
H          H       0.36992   0.96573   0.79895
H          H       0.70237   0.52676   0.58951
H          H       0.47324   0.17561   0.92284
H          H       0.82439   0.29763   0.75618
H          H       0.52676   0.70237   0.91049
H          H       0.17561   0.47324   0.57716
H          H       0.29763   0.82439   0.74382
H          H       0.77053   0.66388   0.99330
H          H       0.33612   0.10665   0.82663
H          H       0.89335   0.22947   0.65996
H          H       0.66388   0.77053   0.50670
H          H       0.10665   0.33612   0.67337
H          H       0.22947   0.89335   0.84004
H          H       0.69986   0.66300   0.98824
H          H       0.33700   0.03686   0.82158
H          H       0.96314   0.30014   0.65491
H          H       0.66300   0.69986   0.51175
H          H       0.03686   0.33700   0.67842
H          H       0.30014   0.96314   0.84509
H          H       0.62414   0.48570   0.61115
H          H       0.51430   0.13844   0.94448
H          H       0.86156   0.37586   0.77782
H          H       0.48570   0.62414   0.88885
H          H       0.13844   0.51430   0.55552
H          H       0.37586   0.86156   0.72218
H          H       0.78061   0.56148   0.56456
H          H       0.43852   0.21913   0.89789
H          H       0.78087   0.21939   0.73122
H          H       0.56148   0.78061   0.93545
H          H       0.21913   0.43852   0.60211
H          H       0.21939   0.78087   0.76878
H          H       0.50878   0.51703   0.61511
H          H       0.48297   0.99175   0.94844
H          H       0.00825   0.49122   0.78178
H          H       0.51703   0.50878   0.88489
H          H       0.99175   0.48297   0.55156
H          H       0.49122   0.00825   0.71822
H          H       0.43302   0.45461   0.63025
H          H       0.54539   0.97841   0.96358
H          H       0.02159   0.56698   0.79692
H          H       0.45461   0.43302   0.86975
H          H       0.97841   0.54539   0.53642
H          H       0.56698   0.02159   0.70308
H          H       0.48481   0.36278   0.61480
H          H       0.63722   0.12203   0.94813
H          H       0.87797   0.51519   0.78147
H          H       0.36278   0.48481   0.88520
H          H       0.12203   0.63722   0.55187
H          H       0.51519   0.87797   0.71853
H          H       0.55964   0.42584   0.59795
H          H       0.57416   0.13380   0.93128
H          H       0.86620   0.44036   0.76461
H          H       0.42584   0.55964   0.90206
H          H       0.13380   0.57416   0.56872
H          H       0.44036   0.86620   0.73539
H          H       0.84448   0.56585   0.53374
H          H       0.43415   0.27863   0.86707
H          H       0.72137   0.15552   0.70041
H          H       0.56585   0.84448   0.96626
H          H       0.27863   0.43415   0.63293
H          H       0.15552   0.72137   0.79959
H          H       0.91995   0.57870   0.53843
H          H       0.42130   0.34125   0.87177
H          H       0.65875   0.08005   0.70510
H          H       0.57870   0.91995   0.96157
H          H       0.34125   0.42130   0.62823
H          H       0.08005   0.65875   0.79490
H          H       0.97082   0.72230   0.53835
H          H       0.27770   0.24852   0.87168
H          H       0.75148   0.02918   0.70502
H          H       0.72230   0.97082   0.96165
H          H       0.24852   0.27770   0.62832
H          H       0.02918   0.75148   0.79498
H          H       0.89419   0.70777   0.53347
H          H       0.29223   0.18642   0.86680
H          H       0.81358   0.10581   0.70014
H          H       0.70777   0.89419   0.96653
H          H       0.18642   0.29223   0.63320
H          H       0.10581   0.81358   0.79986
N          N       0.37642   0.37668   0.62640
N          N       0.62332   0.99974   0.95973
N          N       0.00026   0.62358   0.79306
N          N       0.37668   0.37642   0.87360
N          N       0.99974   0.62332   0.54027
N          N       0.62358   0.00026   0.70694
C          C       0.33952   0.03983   0.59104
C          C       0.96017   0.29969   0.92437
C          C       0.70031   0.66048   0.75771
C          C       0.03983   0.33952   0.90896
C          C       0.29969   0.96017   0.57563
C          C       0.66048   0.70031   0.74229
C          C       0.29952   0.04083   0.59110
C          C       0.95917   0.25869   0.92443
C          C       0.74131   0.70048   0.75777
C          C       0.04083   0.29952   0.90890
C          C       0.25869   0.95917   0.57557
C          C       0.70048   0.74131   0.74223
C          C       0.29754   0.08149   0.59860
C          C       0.91851   0.21605   0.93193
C          C       0.78395   0.70246   0.76527
C          C       0.08149   0.29754   0.90140
C          C       0.21605   0.91851   0.56807
C          C       0.70246   0.78395   0.73473
N          N       0.21478   0.88068   0.56043
N          N       0.11932   0.33410   0.89376
N          N       0.66590   0.78522   0.72710
N          N       0.88068   0.21478   0.93957
N          N       0.33410   0.11932   0.60624
N          N       0.78522   0.66590   0.77290
C          C       0.33992   0.16240   0.61194
C          C       0.83760   0.17752   0.94527
C          C       0.82248   0.66008   0.77861
C          C       0.16240   0.33992   0.88806
C          C       0.17752   0.83760   0.55473
C          C       0.66008   0.82248   0.72139
C          C       0.38328   0.19907   0.61565
C          C       0.80093   0.18421   0.94898
C          C       0.81579   0.61672   0.78232
C          C       0.19907   0.38328   0.88435
C          C       0.18421   0.80093   0.55102
C          C       0.61672   0.81579   0.71768
C          C       0.39127   0.24206   0.61920
C          C       0.75794   0.14921   0.95253
C          C       0.85079   0.60873   0.78587
C          C       0.24206   0.39127   0.88080
C          C       0.14921   0.75794   0.54747
C          C       0.60873   0.85079   0.71413
C          C       0.35496   0.25030   0.62010
C          C       0.74970   0.10466   0.95343
C          C       0.89534   0.64504   0.78676
C          C       0.25030   0.35496   0.87991
C          C       0.10466   0.74970   0.54657
C          C       0.64504   0.89534   0.71324
C          C       0.31088   0.21316   0.61805
C          C       0.78684   0.09772   0.95138
C          C       0.90228   0.68912   0.78471
C          C       0.21316   0.31088   0.88195
C          C       0.09772   0.78684   0.54862
C          C       0.68912   0.90228   0.71529
C          C       0.30410   0.17060   0.61366
C          C       0.82940   0.13350   0.94699
C          C       0.86650   0.69590   0.78033
C          C       0.17060   0.30410   0.88634
C          C       0.13350   0.82940   0.55301
C          C       0.69590   0.86650   0.71967
C          C       0.36229   0.29338   0.62234
C          C       0.70662   0.06891   0.95567
C          C       0.93109   0.63771   0.78901
C          C       0.29338   0.36229   0.87766
C          C       0.06891   0.70662   0.54433
C          C       0.63771   0.93109   0.71099
H          H       0.37174   0.07071   0.59662
H          H       0.92929   0.30103   0.92995
H          H       0.69897   0.62826   0.76329
H          H       0.07071   0.37174   0.90338
H          H       0.30103   0.92929   0.57005
H          H       0.62826   0.69897   0.73671
H          H       0.26443   0.07832   0.59645
H          H       0.92168   0.18611   0.92978
H          H       0.81389   0.73557   0.76312
H          H       0.07832   0.26443   0.90355
H          H       0.18611   0.92168   0.57022
H          H       0.73557   0.81389   0.73688
H          H       0.41168   0.19335   0.61493
H          H       0.80665   0.21833   0.94826
H          H       0.78167   0.58832   0.78160
H          H       0.19335   0.41168   0.88507
H          H       0.21833   0.80665   0.55174
H          H       0.58832   0.78167   0.71840
H          H       0.42574   0.26974   0.62115
H          H       0.73026   0.15600   0.95448
H          H       0.84400   0.57426   0.78781
H          H       0.26974   0.42574   0.87886
H          H       0.15600   0.73026   0.54552
H          H       0.57426   0.84400   0.71219
H          H       0.28208   0.21824   0.61882
H          H       0.78176   0.06384   0.95215
H          H       0.93616   0.71792   0.78548
H          H       0.21824   0.28208   0.88119
H          H       0.06384   0.78176   0.54785
H          H       0.71792   0.93616   0.71452
H          H       0.26973   0.14289   0.61126
H          H       0.85711   0.12684   0.94459
H          H       0.87316   0.73027   0.77793
H          H       0.14289   0.26973   0.88874
H          H       0.12684   0.85711   0.55541
H          H       0.73027   0.87316   0.72207
C          C       0.26006   0.00000   0.58333
C          C       0.00000   0.26006   0.91667
C          C       0.73994   0.73994   0.75000
C          C       0.33960   0.00000   0.58333
C          C       0.00000   0.33960   0.91667
C          C       0.66040   0.66040   0.75000
H          H       0.22846   0.00000   0.58333
H          H       0.00000   0.22846   0.91667
H          H       0.77154   0.77154   0.75000
H          H       0.37125   0.00000   0.58333
H          H       0.00000   0.37125   0.91667
H          H       0.62875   0.62875   0.75000
