data_crystal

_cell_length_a    18.49960
_cell_length_b    18.49960
_cell_length_c    7.08680
_cell_angle_alpha 90.00000
_cell_angle_beta  90.00000
_cell_angle_gamma 120.00000

_space_group_name_Hall 'P 1'
_space_group_name_H-M_alt 'P 1'

loop_
_symmetry_equiv_pos_as_xyz
 'x,y,z'

loop_
_atom_site_label
_atom_site_type_symbol
_atom_site_fract_x
_atom_site_fract_y
_atom_site_fract_z
N          N       0.71494   0.41521   0.00000
N          N       0.58479   0.29973   0.00000
N          N       0.70027   0.28506   0.00000
C          C       0.63281   0.38196   0.00000
C          C       0.61804   0.25085   0.00000
C          C       0.74915   0.36719   0.00000
C          C       0.56495   0.16080   0.00000
C          C       0.83920   0.40415   0.00000
C          C       0.59585   0.43505   0.00000
C          C       0.64525   0.52033   0.00000
C          C       0.47967   0.12492   0.00000
C          C       0.87508   0.35475   0.00000
C          C       0.61029   0.57015   0.00000
C          C       0.42985   0.04014   0.00000
C          C       0.95986   0.38971   0.00000
C          C       0.52531   0.53645   0.00000
C          C       0.46355   0.98886   0.00000
C          C       0.01114   0.47469   0.00000
C          C       0.47578   0.45088   0.00000
C          C       0.54912   0.02490   0.00000
C          C       0.97510   0.52422   0.00000
C          C       0.51074   0.40099   0.00000
C          C       0.59901   0.10975   0.00000
C          C       0.89025   0.48926   0.00000
N          N       0.49270   0.59092   0.00000
N          N       0.40908   0.90178   0.00000
N          N       0.09822   0.50730   0.00000
C          C       0.15889   0.59314   0.00000
C          C       0.40686   0.56575   0.00000
C          C       0.43425   0.84111   0.00000
C          C       0.37441   0.61610   0.00000
C          C       0.38390   0.75831   0.00000
C          C       0.24169   0.62559   0.00000
C          C       0.42304   0.70695   0.00000
C          C       0.29305   0.71609   0.00000
C          C       0.28391   0.57696   0.00000
H          H       0.71105   0.54847   0.00000
H          H       0.45153   0.16258   0.00000
H          H       0.83742   0.28895   0.00000
H          H       0.64977   0.63566   0.00000
H          H       0.36434   0.01411   0.00000
H          H       0.98589   0.35023   0.00000
H          H       0.41027   0.42105   0.00000
H          H       0.57895   0.98922   0.00000
H          H       0.01078   0.58973   0.00000
H          H       0.47107   0.33545   0.00000
H          H       0.66455   0.13562   0.00000
H          H       0.86438   0.52893   0.00000
H          H       0.13714   0.63600   0.00000
H          H       0.36400   0.50114   0.00000
H          H       0.49886   0.86286   0.00000
O          O       0.49716   0.74157   0.00000
O          O       0.25843   0.75559   0.00000
O          O       0.24441   0.50284   0.00000
H          H       0.53634   0.65254   0.00000
H          H       0.34746   0.88380   0.00000
H          H       0.11620   0.46366   0.00000
N          N       0.71494   0.41521   0.50000
N          N       0.58479   0.29973   0.50000
N          N       0.70027   0.28506   0.50000
C          C       0.63281   0.38196   0.50000
C          C       0.61804   0.25085   0.50000
C          C       0.74915   0.36719   0.50000
C          C       0.56495   0.16080   0.50000
C          C       0.83920   0.40415   0.50000
C          C       0.59585   0.43505   0.50000
C          C       0.64525   0.52033   0.50000
C          C       0.47967   0.12492   0.50000
C          C       0.87508   0.35475   0.50000
C          C       0.61029   0.57015   0.50000
C          C       0.42985   0.04014   0.50000
C          C       0.95986   0.38971   0.50000
C          C       0.52531   0.53645   0.50000
C          C       0.46355   0.98886   0.50000
C          C       0.01114   0.47469   0.50000
C          C       0.47578   0.45088   0.50000
C          C       0.54912   0.02490   0.50000
C          C       0.97510   0.52422   0.50000
C          C       0.51074   0.40099   0.50000
C          C       0.59901   0.10975   0.50000
C          C       0.89025   0.48926   0.50000
N          N       0.49270   0.59092   0.50000
N          N       0.40908   0.90178   0.50000
N          N       0.09822   0.50730   0.50000
C          C       0.15889   0.59314   0.50000
C          C       0.40686   0.56575   0.50000
C          C       0.43425   0.84111   0.50000
C          C       0.37441   0.61610   0.50000
C          C       0.38390   0.75831   0.50000
C          C       0.24169   0.62559   0.50000
C          C       0.42304   0.70695   0.50000
C          C       0.29305   0.71609   0.50000
C          C       0.28391   0.57696   0.50000
H          H       0.71105   0.54847   0.50000
H          H       0.45153   0.16258   0.50000
H          H       0.83742   0.28895   0.50000
H          H       0.64977   0.63566   0.50000
H          H       0.36434   0.01411   0.50000
H          H       0.98589   0.35023   0.50000
H          H       0.41027   0.42105   0.50000
H          H       0.57895   0.98922   0.50000
H          H       0.01078   0.58973   0.50000
H          H       0.47107   0.33545   0.50000
H          H       0.66455   0.13562   0.50000
H          H       0.86438   0.52893   0.50000
H          H       0.13714   0.63600   0.50000
H          H       0.36400   0.50114   0.50000
H          H       0.49886   0.86286   0.50000
O          O       0.49716   0.74157   0.50000
O          O       0.25843   0.75559   0.50000
O          O       0.24441   0.50284   0.50000
H          H       0.53634   0.65254   0.50000
H          H       0.34746   0.88380   0.50000
H          H       0.11620   0.46366   0.50000
