data_crystal

_cell_length_a    41.38050
_cell_length_b    41.38050
_cell_length_c    9.53320
_cell_angle_alpha 90.00000
_cell_angle_beta  90.00000
_cell_angle_gamma 120.00000

_space_group_name_Hall 'P 1'
_space_group_name_H-M_alt 'P 1'

loop_
_symmetry_equiv_pos_as_xyz
 'x,y,z'

loop_
_atom_site_label
_atom_site_type_symbol
_atom_site_fract_x
_atom_site_fract_y
_atom_site_fract_z
H          H       0.15474   0.33408   0.11154
H          H       0.66592   0.82066   0.11154
H          H       0.17934   0.84526   0.11154
H          H       0.84526   0.66592   0.11154
H          H       0.33408   0.17934   0.11154
H          H       0.82066   0.15474   0.11154
H          H       0.26882   0.52030   0.26753
H          H       0.47970   0.74852   0.26753
H          H       0.25148   0.73118   0.26753
H          H       0.73118   0.47970   0.26753
H          H       0.52030   0.25148   0.26753
H          H       0.74852   0.26882   0.26753
H          H       0.17955   0.33016   0.25650
H          H       0.66984   0.84939   0.25650
H          H       0.15061   0.82045   0.25650
H          H       0.82045   0.66984   0.25650
H          H       0.33016   0.15061   0.25650
H          H       0.84939   0.17955   0.25650
H          H       0.25731   0.49031   0.11589
H          H       0.50969   0.76700   0.11589
H          H       0.23300   0.74269   0.11589
H          H       0.74269   0.50969   0.11589
H          H       0.49031   0.23300   0.11589
H          H       0.76700   0.25731   0.11589
C          C       0.03183   0.49868   0.12369
C          C       0.50132   0.53315   0.12369
C          C       0.46685   0.96817   0.12369
C          C       0.96817   0.50132   0.12369
C          C       0.49868   0.46685   0.12369
C          C       0.53315   0.03183   0.12369
C          C       0.03309   0.53191   0.12317
C          C       0.46809   0.50118   0.12317
C          C       0.49882   0.96691   0.12317
C          C       0.96691   0.46809   0.12317
C          C       0.53191   0.49882   0.12317
C          C       0.50118   0.03309   0.12317
C          C       0.00128   0.53383   0.11113
C          C       0.46617   0.46745   0.11113
C          C       0.53255   0.99872   0.11113
C          C       0.99872   0.46617   0.11113
C          C       0.53383   0.53255   0.11113
C          C       0.46745   0.00128   0.11113
N          N       0.99739   0.43189   0.08602
N          N       0.56811   0.56550   0.08602
N          N       0.43450   0.00261   0.08602
N          N       0.00261   0.56811   0.08602
N          N       0.43189   0.43450   0.08602
N          N       0.56550   0.99739   0.08602
C          C       0.96376   0.39975   0.05124
C          C       0.60025   0.56401   0.05124
C          C       0.43599   0.03624   0.05124
C          C       0.03624   0.60025   0.05124
C          C       0.39975   0.43599   0.05124
C          C       0.56401   0.96376   0.05124
C          C       0.96985   0.56944   0.06461
C          C       0.43056   0.40041   0.06461
C          C       0.59959   0.03015   0.06461
C          C       0.03015   0.43056   0.06461
C          C       0.56944   0.59959   0.06461
C          C       0.40041   0.96985   0.06461
C          C       0.96102   0.58996   0.15355
C          C       0.41004   0.37106   0.15355
C          C       0.62894   0.03898   0.15355
C          C       0.03898   0.41004   0.15355
C          C       0.58996   0.62894   0.15355
C          C       0.37106   0.96102   0.15355
C          C       0.92975   0.59168   0.13150
C          C       0.40832   0.33807   0.13150
C          C       0.66193   0.07025   0.13150
C          C       0.07025   0.40832   0.13150
C          C       0.59168   0.66193   0.13150
C          C       0.33807   0.92975   0.13150
C          C       0.90596   0.57215   0.02315
C          C       0.42785   0.33381   0.02315
C          C       0.66619   0.09404   0.02315
C          C       0.09404   0.42785   0.02315
C          C       0.57215   0.66619   0.02315
C          C       0.33381   0.90596   0.02315
C          C       0.91406   0.55075   0.43512
C          C       0.44925   0.36331   0.43512
C          C       0.63669   0.08594   0.43512
C          C       0.08594   0.44925   0.43512
C          C       0.55075   0.63669   0.43512
C          C       0.36331   0.91406   0.43512
C          C       0.94617   0.55004   0.45432
C          C       0.44996   0.39613   0.45432
C          C       0.60387   0.05383   0.45432
C          C       0.05383   0.44996   0.45432
C          C       0.55004   0.60387   0.45432
C          C       0.39613   0.94617   0.45432
C          C       0.94268   0.39967   0.43785
C          C       0.60033   0.54301   0.43785
C          C       0.45699   0.05732   0.43785
C          C       0.05732   0.60033   0.43785
C          C       0.39967   0.45699   0.43785
C          C       0.54301   0.94268   0.43785
C          C       0.90971   0.36879   0.40636
C          C       0.63121   0.54092   0.40636
C          C       0.45908   0.09029   0.40636
C          C       0.09029   0.63121   0.40636
C          C       0.36879   0.45908   0.40636
C          C       0.54092   0.90971   0.40636
C          C       0.89814   0.33691   0.48276
C          C       0.66309   0.56123   0.48276
C          C       0.43877   0.10186   0.48276
C          C       0.10186   0.66309   0.48276
C          C       0.33691   0.43877   0.48276
C          C       0.56123   0.89814   0.48276
C          C       0.91909   0.33710   0.09691
C          C       0.66290   0.58199   0.09691
C          C       0.41801   0.08091   0.09691
C          C       0.08091   0.66290   0.09691
C          C       0.33710   0.41801   0.09691
C          C       0.58199   0.91909   0.09691
C          C       0.95138   0.36812   0.13047
C          C       0.63188   0.58326   0.13047
C          C       0.41674   0.04862   0.13047
C          C       0.04862   0.63188   0.13047
C          C       0.36812   0.41674   0.13047
C          C       0.58326   0.95138   0.13047
N          N       0.86436   0.30539   0.44758
N          N       0.69461   0.55897   0.44758
N          N       0.44103   0.13564   0.44758
N          N       0.13564   0.69461   0.44758
N          N       0.30539   0.44103   0.44758
N          N       0.55897   0.86436   0.44758
N          N       0.87427   0.57526   0.00854
N          N       0.42474   0.29901   0.00854
N          N       0.70099   0.12573   0.00854
N          N       0.12573   0.42474   0.00854
N          N       0.57526   0.70099   0.00854
N          N       0.29901   0.87427   0.00854
C          C       0.81934   0.59315   0.01844
C          C       0.40685   0.22619   0.01844
C          C       0.77381   0.18066   0.01844
C          C       0.18066   0.40685   0.01844
C          C       0.59315   0.77381   0.01844
C          C       0.22619   0.81934   0.01844
C          C       0.79031   0.59952   0.03417
C          C       0.40048   0.19079   0.03417
C          C       0.80921   0.20969   0.03417
C          C       0.20969   0.40048   0.03417
C          C       0.59952   0.80921   0.03417
C          C       0.19079   0.79031   0.03417
C          C       0.75856   0.57844   0.45670
C          C       0.42156   0.18012   0.45670
C          C       0.81988   0.24144   0.45670
C          C       0.24144   0.42156   0.45670
C          C       0.57844   0.81988   0.45670
C          C       0.18012   0.75856   0.45670
C          C       0.75667   0.55238   0.36196
C          C       0.44762   0.20429   0.36196
C          C       0.79571   0.24333   0.36196
C          C       0.24333   0.44762   0.36196
C          C       0.55238   0.79571   0.36196
C          C       0.20429   0.75667   0.36196
C          C       0.78598   0.54613   0.34562
C          C       0.45387   0.23985   0.34562
C          C       0.76015   0.21402   0.34562
C          C       0.21402   0.45387   0.34562
C          C       0.54613   0.76015   0.34562
C          C       0.23985   0.78598   0.34562
C          C       0.81732   0.56646   0.42661
C          C       0.43354   0.25086   0.42661
C          C       0.74914   0.18268   0.42661
C          C       0.18268   0.43354   0.42661
C          C       0.56646   0.74914   0.42661
C          C       0.25086   0.81732   0.42661
C          C       0.84792   0.55943   0.41945
C          C       0.44057   0.28849   0.41945
C          C       0.71151   0.15208   0.41945
C          C       0.15208   0.44057   0.41945
C          C       0.55943   0.71151   0.41945
C          C       0.28849   0.84792   0.41945
C          C       0.72735   0.58379   0.47857
C          C       0.41621   0.14356   0.47857
C          C       0.85644   0.27265   0.47857
C          C       0.27265   0.41621   0.47857
C          C       0.58379   0.85644   0.47857
C          C       0.14356   0.72735   0.47857
H          H       0.05712   0.49886   0.13009
H          H       0.50114   0.55826   0.13009
H          H       0.44174   0.94288   0.13009
H          H       0.94288   0.50114   0.13009
H          H       0.49886   0.44174   0.13009
H          H       0.55826   0.05712   0.13009
H          H       0.05925   0.55604   0.12873
H          H       0.44396   0.50321   0.12873
H          H       0.49679   0.94075   0.12873
H          H       0.94075   0.44396   0.12873
H          H       0.55604   0.49679   0.12873
H          H       0.50321   0.05925   0.12873
H          H       0.97734   0.60369   0.24367
H          H       0.39631   0.37365   0.24367
H          H       0.62635   0.02266   0.24367
H          H       0.02266   0.39631   0.24367
H          H       0.60369   0.62635   0.24367
H          H       0.37365   0.97734   0.24367
H          H       0.92352   0.60774   0.20167
H          H       0.39226   0.31578   0.20167
H          H       0.68422   0.07648   0.20167
H          H       0.07648   0.39226   0.20167
H          H       0.60774   0.68422   0.20167
H          H       0.31578   0.92352   0.20167
H          H       0.89633   0.53511   0.35041
H          H       0.46489   0.36122   0.35041
H          H       0.63878   0.10367   0.35041
H          H       0.10367   0.46489   0.35041
H          H       0.53511   0.63878   0.35041
H          H       0.36122   0.89633   0.35041
H          H       0.95255   0.53416   0.38384
H          H       0.46584   0.41839   0.38384
H          H       0.58161   0.04745   0.38384
H          H       0.04745   0.46584   0.38384
H          H       0.53416   0.58161   0.38384
H          H       0.41839   0.95255   0.38384
H          H       0.95167   0.42367   0.37475
H          H       0.57633   0.52800   0.37475
H          H       0.47200   0.04833   0.37475
H          H       0.04833   0.57633   0.37475
H          H       0.42367   0.47200   0.37475
H          H       0.52800   0.95167   0.37475
H          H       0.89364   0.36943   0.31980
H          H       0.63057   0.52421   0.31980
H          H       0.47579   0.10636   0.31980
H          H       0.10636   0.63057   0.31980
H          H       0.36943   0.47579   0.31980
H          H       0.52421   0.89364   0.31980
H          H       0.91007   0.31385   0.16447
H          H       0.68615   0.59622   0.16447
H          H       0.40378   0.08993   0.16447
H          H       0.08993   0.68615   0.16447
H          H       0.31385   0.40378   0.16447
H          H       0.59622   0.91007   0.16447
H          H       0.96550   0.36745   0.22279
H          H       0.63255   0.59805   0.22279
H          H       0.40195   0.03450   0.22279
H          H       0.03450   0.63255   0.22279
H          H       0.36745   0.40195   0.22279
H          H       0.59805   0.96550   0.22279
H          H       0.84361   0.60861   0.07921
H          H       0.39139   0.23500   0.07921
H          H       0.76500   0.15639   0.07921
H          H       0.15639   0.39139   0.07921
H          H       0.60861   0.76500   0.07921
H          H       0.23500   0.84361   0.07921
H          H       0.73222   0.53721   0.30164
H          H       0.46279   0.19501   0.30164
H          H       0.80499   0.26778   0.30164
H          H       0.26778   0.46279   0.30164
H          H       0.53721   0.80499   0.30164
H          H       0.19501   0.73222   0.30164
H          H       0.84758   0.54058   0.34304
H          H       0.45942   0.30700   0.34304
H          H       0.69300   0.15242   0.34304
H          H       0.15242   0.45942   0.34304
H          H       0.54058   0.69300   0.34304
H          H       0.30700   0.84758   0.34304
H          H       0.73220   0.60860   0.02755
H          H       0.39140   0.12360   0.02755
H          H       0.87640   0.26780   0.02755
H          H       0.26780   0.39140   0.02755
H          H       0.60860   0.87640   0.02755
H          H       0.12360   0.73220   0.02755
O          O       0.21466   0.47979   0.25199
O          O       0.52021   0.73487   0.25199
O          O       0.26513   0.78534   0.25199
O          O       0.78534   0.52021   0.25199
O          O       0.47979   0.26513   0.25199
O          O       0.73487   0.21466   0.25199
O          O       0.20889   0.37456   0.12847
O          O       0.62544   0.83433   0.12847
O          O       0.16567   0.79111   0.12847
O          O       0.79111   0.62544   0.12847
O          O       0.37456   0.16567   0.12847
O          O       0.83433   0.20889   0.12847
C          C       0.17408   0.82456   0.19284
C          C       0.17544   0.34952   0.19284
C          C       0.65048   0.82592   0.19284
C          C       0.82592   0.17544   0.19284
C          C       0.82456   0.65048   0.19284
C          C       0.34952   0.17408   0.19284
C          C       0.25658   0.75196   0.18679
C          C       0.24804   0.50462   0.18679
C          C       0.49538   0.74342   0.18679
C          C       0.74342   0.24804   0.18679
C          C       0.75196   0.49538   0.18679
C          C       0.50462   0.25658   0.18679
H          H       0.16609   0.36364   0.26445
H          H       0.63636   0.80245   0.26445
H          H       0.19755   0.83391   0.26445
H          H       0.83391   0.63636   0.26445
H          H       0.36364   0.19755   0.26445
H          H       0.80245   0.16609   0.26445
H          H       0.24388   0.52380   0.12216
H          H       0.47620   0.72008   0.12216
H          H       0.27992   0.75612   0.12216
H          H       0.75612   0.47620   0.12216
H          H       0.52380   0.27992   0.12216
H          H       0.72008   0.24388   0.12216
H          H       0.15474   0.33408   0.61154
H          H       0.66592   0.82066   0.61154
H          H       0.17934   0.84526   0.61154
H          H       0.84526   0.66592   0.61154
H          H       0.33408   0.17934   0.61154
H          H       0.82066   0.15474   0.61154
H          H       0.26882   0.52030   0.76753
H          H       0.47970   0.74852   0.76753
H          H       0.25148   0.73118   0.76753
H          H       0.73118   0.47970   0.76753
H          H       0.52030   0.25148   0.76753
H          H       0.74852   0.26882   0.76753
H          H       0.17955   0.33016   0.75650
H          H       0.66984   0.84939   0.75650
H          H       0.15061   0.82045   0.75650
H          H       0.82045   0.66984   0.75650
H          H       0.33016   0.15061   0.75650
H          H       0.84939   0.17955   0.75650
H          H       0.25731   0.49031   0.61589
H          H       0.50969   0.76700   0.61589
H          H       0.23300   0.74269   0.61589
H          H       0.74269   0.50969   0.61589
H          H       0.49031   0.23300   0.61589
H          H       0.76700   0.25731   0.61589
C          C       0.03183   0.49868   0.62369
C          C       0.50132   0.53315   0.62369
C          C       0.46685   0.96817   0.62369
C          C       0.96817   0.50132   0.62369
C          C       0.49868   0.46685   0.62369
C          C       0.53315   0.03183   0.62369
C          C       0.03309   0.53191   0.62317
C          C       0.46809   0.50118   0.62317
C          C       0.49882   0.96691   0.62317
C          C       0.96691   0.46809   0.62317
C          C       0.53191   0.49882   0.62317
C          C       0.50118   0.03309   0.62317
C          C       0.00128   0.53383   0.61113
C          C       0.46617   0.46745   0.61113
C          C       0.53255   0.99872   0.61113
C          C       0.99872   0.46617   0.61113
C          C       0.53383   0.53255   0.61113
C          C       0.46745   0.00128   0.61113
N          N       0.99739   0.43189   0.58602
N          N       0.56811   0.56550   0.58602
N          N       0.43450   0.00261   0.58602
N          N       0.00261   0.56811   0.58602
N          N       0.43189   0.43450   0.58602
N          N       0.56550   0.99739   0.58602
C          C       0.96376   0.39975   0.55124
C          C       0.60025   0.56401   0.55124
C          C       0.43599   0.03624   0.55124
C          C       0.03624   0.60025   0.55124
C          C       0.39975   0.43599   0.55124
C          C       0.56401   0.96376   0.55124
C          C       0.96985   0.56944   0.56461
C          C       0.43056   0.40041   0.56461
C          C       0.59959   0.03015   0.56461
C          C       0.03015   0.43056   0.56461
C          C       0.56944   0.59959   0.56461
C          C       0.40041   0.96985   0.56461
C          C       0.96102   0.58996   0.65355
C          C       0.41004   0.37106   0.65355
C          C       0.62894   0.03898   0.65355
C          C       0.03898   0.41004   0.65355
C          C       0.58996   0.62894   0.65355
C          C       0.37106   0.96102   0.65355
C          C       0.92975   0.59168   0.63150
C          C       0.40832   0.33807   0.63150
C          C       0.66193   0.07025   0.63150
C          C       0.07025   0.40832   0.63150
C          C       0.59168   0.66193   0.63150
C          C       0.33807   0.92975   0.63150
C          C       0.90596   0.57215   0.52315
C          C       0.42785   0.33381   0.52315
C          C       0.66619   0.09404   0.52315
C          C       0.09404   0.42785   0.52315
C          C       0.57215   0.66619   0.52315
C          C       0.33381   0.90596   0.52315
C          C       0.91406   0.55075   0.93512
C          C       0.44925   0.36331   0.93512
C          C       0.63669   0.08594   0.93512
C          C       0.08594   0.44925   0.93512
C          C       0.55075   0.63669   0.93512
C          C       0.36331   0.91406   0.93512
C          C       0.94617   0.55004   0.95432
C          C       0.44996   0.39613   0.95432
C          C       0.60387   0.05383   0.95432
C          C       0.05383   0.44996   0.95432
C          C       0.55004   0.60387   0.95432
C          C       0.39613   0.94617   0.95432
C          C       0.94268   0.39967   0.93785
C          C       0.60033   0.54301   0.93785
C          C       0.45699   0.05732   0.93785
C          C       0.05732   0.60033   0.93785
C          C       0.39967   0.45699   0.93785
C          C       0.54301   0.94268   0.93785
C          C       0.90971   0.36879   0.90636
C          C       0.63121   0.54092   0.90636
C          C       0.45908   0.09029   0.90636
C          C       0.09029   0.63121   0.90636
C          C       0.36879   0.45908   0.90636
C          C       0.54092   0.90971   0.90636
C          C       0.89814   0.33691   0.98277
C          C       0.66309   0.56123   0.98277
C          C       0.43877   0.10186   0.98277
C          C       0.10186   0.66309   0.98277
C          C       0.33691   0.43877   0.98277
C          C       0.56123   0.89814   0.98277
C          C       0.91909   0.33710   0.59691
C          C       0.66290   0.58199   0.59691
C          C       0.41801   0.08091   0.59691
C          C       0.08091   0.66290   0.59691
C          C       0.33710   0.41801   0.59691
C          C       0.58199   0.91909   0.59691
C          C       0.95138   0.36812   0.63047
C          C       0.63188   0.58326   0.63047
C          C       0.41674   0.04862   0.63047
C          C       0.04862   0.63188   0.63047
C          C       0.36812   0.41674   0.63047
C          C       0.58326   0.95138   0.63047
N          N       0.86436   0.30539   0.94758
N          N       0.69461   0.55897   0.94758
N          N       0.44103   0.13564   0.94758
N          N       0.13564   0.69461   0.94758
N          N       0.30539   0.44103   0.94758
N          N       0.55897   0.86436   0.94758
N          N       0.87427   0.57526   0.50854
N          N       0.42474   0.29901   0.50854
N          N       0.70099   0.12573   0.50854
N          N       0.12573   0.42474   0.50854
N          N       0.57526   0.70099   0.50854
N          N       0.29901   0.87427   0.50854
C          C       0.81934   0.59315   0.51844
C          C       0.40685   0.22619   0.51844
C          C       0.77381   0.18066   0.51844
C          C       0.18066   0.40685   0.51844
C          C       0.59315   0.77381   0.51844
C          C       0.22619   0.81934   0.51844
C          C       0.79031   0.59952   0.53417
C          C       0.40048   0.19079   0.53417
C          C       0.80921   0.20969   0.53417
C          C       0.20969   0.40048   0.53417
C          C       0.59952   0.80921   0.53417
C          C       0.19079   0.79031   0.53417
C          C       0.75856   0.57844   0.95670
C          C       0.42156   0.18012   0.95670
C          C       0.81988   0.24144   0.95670
C          C       0.24144   0.42156   0.95670
C          C       0.57844   0.81988   0.95670
C          C       0.18012   0.75856   0.95670
C          C       0.75667   0.55238   0.86196
C          C       0.44762   0.20429   0.86196
C          C       0.79571   0.24333   0.86196
C          C       0.24333   0.44762   0.86196
C          C       0.55238   0.79571   0.86196
C          C       0.20429   0.75667   0.86196
C          C       0.78598   0.54613   0.84562
C          C       0.45387   0.23985   0.84562
C          C       0.76015   0.21402   0.84562
C          C       0.21402   0.45387   0.84562
C          C       0.54613   0.76015   0.84562
C          C       0.23985   0.78598   0.84562
C          C       0.81732   0.56646   0.92661
C          C       0.43354   0.25086   0.92661
C          C       0.74914   0.18268   0.92661
C          C       0.18268   0.43354   0.92661
C          C       0.56646   0.74914   0.92661
C          C       0.25086   0.81732   0.92661
C          C       0.84792   0.55943   0.91944
C          C       0.44057   0.28849   0.91944
C          C       0.71151   0.15208   0.91944
C          C       0.15208   0.44057   0.91944
C          C       0.55943   0.71151   0.91944
C          C       0.28849   0.84792   0.91944
C          C       0.72735   0.58379   0.97857
C          C       0.41621   0.14356   0.97857
C          C       0.85644   0.27265   0.97857
C          C       0.27265   0.41621   0.97857
C          C       0.58379   0.85644   0.97857
C          C       0.14356   0.72735   0.97857
H          H       0.05712   0.49886   0.63009
H          H       0.50114   0.55826   0.63009
H          H       0.44174   0.94288   0.63009
H          H       0.94288   0.50114   0.63009
H          H       0.49886   0.44174   0.63009
H          H       0.55826   0.05712   0.63009
H          H       0.05925   0.55604   0.62873
H          H       0.44396   0.50321   0.62873
H          H       0.49679   0.94075   0.62873
H          H       0.94075   0.44396   0.62873
H          H       0.55604   0.49679   0.62873
H          H       0.50321   0.05925   0.62873
H          H       0.97734   0.60369   0.74367
H          H       0.39631   0.37365   0.74367
H          H       0.62635   0.02266   0.74367
H          H       0.02266   0.39631   0.74367
H          H       0.60369   0.62635   0.74367
H          H       0.37365   0.97734   0.74367
H          H       0.92352   0.60774   0.70167
H          H       0.39226   0.31578   0.70167
H          H       0.68422   0.07648   0.70167
H          H       0.07648   0.39226   0.70167
H          H       0.60774   0.68422   0.70167
H          H       0.31578   0.92352   0.70167
H          H       0.89633   0.53511   0.85040
H          H       0.46489   0.36122   0.85040
H          H       0.63878   0.10367   0.85040
H          H       0.10367   0.46489   0.85040
H          H       0.53511   0.63878   0.85040
H          H       0.36122   0.89633   0.85040
H          H       0.95255   0.53416   0.88384
H          H       0.46584   0.41839   0.88384
H          H       0.58161   0.04745   0.88384
H          H       0.04745   0.46584   0.88384
H          H       0.53416   0.58161   0.88384
H          H       0.41839   0.95255   0.88384
H          H       0.95167   0.42367   0.87475
H          H       0.57633   0.52800   0.87475
H          H       0.47200   0.04833   0.87475
H          H       0.04833   0.57633   0.87475
H          H       0.42367   0.47200   0.87475
H          H       0.52800   0.95167   0.87475
H          H       0.89364   0.36943   0.81980
H          H       0.63057   0.52421   0.81980
H          H       0.47579   0.10636   0.81980
H          H       0.10636   0.63057   0.81980
H          H       0.36943   0.47579   0.81980
H          H       0.52421   0.89364   0.81980
H          H       0.91007   0.31385   0.66447
H          H       0.68615   0.59622   0.66447
H          H       0.40378   0.08993   0.66447
H          H       0.08993   0.68615   0.66447
H          H       0.31385   0.40378   0.66447
H          H       0.59622   0.91007   0.66447
H          H       0.96550   0.36745   0.72279
H          H       0.63255   0.59805   0.72279
H          H       0.40195   0.03450   0.72279
H          H       0.03450   0.63255   0.72279
H          H       0.36745   0.40195   0.72279
H          H       0.59805   0.96550   0.72279
H          H       0.84361   0.60861   0.57921
H          H       0.39139   0.23500   0.57921
H          H       0.76500   0.15639   0.57921
H          H       0.15639   0.39139   0.57921
H          H       0.60861   0.76500   0.57921
H          H       0.23500   0.84361   0.57921
H          H       0.73222   0.53721   0.80164
H          H       0.46279   0.19501   0.80164
H          H       0.80499   0.26778   0.80164
H          H       0.26778   0.46279   0.80164
H          H       0.53721   0.80499   0.80164
H          H       0.19501   0.73222   0.80164
H          H       0.84758   0.54058   0.84305
H          H       0.45942   0.30700   0.84305
H          H       0.69300   0.15242   0.84305
H          H       0.15242   0.45942   0.84305
H          H       0.54058   0.69300   0.84305
H          H       0.30700   0.84758   0.84305
H          H       0.73220   0.60860   0.52755
H          H       0.39140   0.12360   0.52755
H          H       0.87640   0.26780   0.52755
H          H       0.26780   0.39140   0.52755
H          H       0.60860   0.87640   0.52755
H          H       0.12360   0.73220   0.52755
O          O       0.21466   0.47979   0.75199
O          O       0.52021   0.73487   0.75199
O          O       0.26513   0.78534   0.75199
O          O       0.78534   0.52021   0.75199
O          O       0.47979   0.26513   0.75199
O          O       0.73487   0.21466   0.75199
O          O       0.20889   0.37456   0.62847
O          O       0.62544   0.83433   0.62847
O          O       0.16567   0.79111   0.62847
O          O       0.79111   0.62544   0.62847
O          O       0.37456   0.16567   0.62847
O          O       0.83433   0.20889   0.62847
C          C       0.17408   0.82456   0.69284
C          C       0.17544   0.34952   0.69284
C          C       0.65048   0.82592   0.69284
C          C       0.82592   0.17544   0.69284
C          C       0.82456   0.65048   0.69284
C          C       0.34952   0.17408   0.69284
C          C       0.25658   0.75196   0.68679
C          C       0.24804   0.50462   0.68679
C          C       0.49538   0.74342   0.68679
C          C       0.74342   0.24804   0.68679
C          C       0.75196   0.49538   0.68679
C          C       0.50462   0.25658   0.68679
H          H       0.16609   0.36364   0.76445
H          H       0.63636   0.80245   0.76445
H          H       0.19755   0.83391   0.76445
H          H       0.83391   0.63636   0.76445
H          H       0.36364   0.19755   0.76445
H          H       0.80245   0.16609   0.76445
H          H       0.24388   0.52380   0.62216
H          H       0.47620   0.72008   0.62216
H          H       0.27992   0.75612   0.62216
H          H       0.75612   0.47620   0.62216
H          H       0.52380   0.27992   0.62216
H          H       0.72008   0.24388   0.62216
