data_crystal

_cell_length_a    23.09100
_cell_length_b    23.09100
_cell_length_c    7.65300
_cell_angle_alpha 90.00000
_cell_angle_beta  90.00000
_cell_angle_gamma 120.00000

_space_group_name_Hall 'P 1'
_space_group_name_H-M_alt 'P 1'

loop_
_symmetry_equiv_pos_as_xyz
 'x,y,z'

loop_
_atom_site_label
_atom_site_type_symbol
_atom_site_fract_x
_atom_site_fract_y
_atom_site_fract_z
N          N       0.14548   0.55920   0.45796
N          N       0.44080   0.58628   0.45796
N          N       0.41372   0.85452   0.45796
N          N       0.85452   0.44080   0.45796
N          N       0.55920   0.41372   0.45796
N          N       0.58628   0.14548   0.45796
C          C       0.07220   0.52956   0.46875
C          C       0.47044   0.54264   0.46875
C          C       0.45736   0.92780   0.46875
C          C       0.92780   0.47044   0.46875
C          C       0.52956   0.45736   0.46875
C          C       0.54264   0.07220   0.46875
C          C       0.04210   0.57109   0.47023
C          C       0.42891   0.47101   0.47023
C          C       0.52899   0.95790   0.47023
C          C       0.95790   0.42891   0.47023
C          C       0.57109   0.52899   0.47023
C          C       0.47101   0.04210   0.47023
C          C       0.97075   0.54249   0.47399
C          C       0.45751   0.42826   0.47399
C          C       0.57174   0.02925   0.47399
C          C       0.02925   0.45751   0.47399
C          C       0.54249   0.57174   0.47399
C          C       0.42826   0.97075   0.47399
C          C       0.80537   0.37316   0.01919
C          C       0.62684   0.43221   0.01919
C          C       0.56779   0.19463   0.01919
C          C       0.19463   0.62684   0.01919
C          C       0.37316   0.56779   0.01919
C          C       0.43221   0.80537   0.01919
C          C       0.74043   0.35550   0.06094
C          C       0.64450   0.38493   0.06094
C          C       0.61507   0.25957   0.06094
C          C       0.25957   0.64450   0.06094
C          C       0.35550   0.61507   0.06094
C          C       0.38493   0.74043   0.06094
C          C       0.71749   0.40624   0.08360
C          C       0.59376   0.31125   0.08360
C          C       0.68875   0.28251   0.08360
C          C       0.28251   0.59376   0.08360
C          C       0.40624   0.68875   0.08360
C          C       0.31125   0.71749   0.08360
H          H       0.07361   0.62608   0.46492
H          H       0.37392   0.44753   0.46492
H          H       0.55247   0.92639   0.46492
H          H       0.92639   0.37392   0.46492
H          H       0.62608   0.55247   0.46492
H          H       0.44753   0.07361   0.46492
C          C       0.94197   0.59011   0.48577
C          C       0.40989   0.35186   0.48577
C          C       0.64814   0.05803   0.48577
C          C       0.05803   0.40989   0.48577
C          C       0.59011   0.64814   0.48577
C          C       0.35186   0.94197   0.48577
H          H       0.81865   0.33313   0.01878
H          H       0.66687   0.48552   0.01878
H          H       0.51448   0.18135   0.01878
H          H       0.18135   0.66687   0.01878
H          H       0.33313   0.51448   0.01878
H          H       0.48552   0.81865   0.01878
O          O       0.75803   0.46500   0.12832
O          O       0.53500   0.29303   0.12832
O          O       0.70697   0.24197   0.12832
O          O       0.24197   0.53500   0.12832
O          O       0.46500   0.70697   0.12832
O          O       0.29303   0.75803   0.12832
H          H       0.16424   0.52935   0.40097
H          H       0.47065   0.63489   0.40097
H          H       0.36511   0.83576   0.40097
H          H       0.83576   0.47065   0.40097
H          H       0.52935   0.36511   0.40097
H          H       0.63489   0.16424   0.40097
H          H       0.89529   0.56757   0.07037
H          H       0.43243   0.32772   0.07037
H          H       0.67228   0.10471   0.07037
H          H       0.10471   0.43243   0.07037
H          H       0.56757   0.67228   0.07037
H          H       0.32772   0.89529   0.07037
H          H       0.92759   0.59903   0.35215
H          H       0.40097   0.32856   0.35215
H          H       0.67144   0.07241   0.35215
H          H       0.07241   0.40097   0.35215
H          H       0.59903   0.67144   0.35215
H          H       0.32856   0.92759   0.35215
H          H       0.97968   0.64034   0.04406
H          H       0.35966   0.33934   0.04406
H          H       0.66066   0.02032   0.04406
H          H       0.02032   0.35966   0.04406
H          H       0.64034   0.66066   0.04406
H          H       0.33934   0.97968   0.04406
N          N       0.14548   0.55920   0.95796
N          N       0.44080   0.58628   0.95796
N          N       0.41372   0.85452   0.95796
N          N       0.85452   0.44080   0.95796
N          N       0.55920   0.41372   0.95796
N          N       0.58628   0.14548   0.95796
C          C       0.07220   0.52956   0.96874
C          C       0.47044   0.54264   0.96874
C          C       0.45736   0.92780   0.96874
C          C       0.92780   0.47044   0.96874
C          C       0.52956   0.45736   0.96874
C          C       0.54264   0.07220   0.96874
C          C       0.04210   0.57109   0.97023
C          C       0.42891   0.47101   0.97023
C          C       0.52899   0.95790   0.97023
C          C       0.95790   0.42891   0.97023
C          C       0.57109   0.52899   0.97023
C          C       0.47101   0.04210   0.97023
C          C       0.97075   0.54249   0.97399
C          C       0.45751   0.42826   0.97399
C          C       0.57174   0.02925   0.97399
C          C       0.02925   0.45751   0.97399
C          C       0.54249   0.57174   0.97399
C          C       0.42826   0.97075   0.97399
C          C       0.80537   0.37316   0.51919
C          C       0.62684   0.43221   0.51919
C          C       0.56779   0.19463   0.51919
C          C       0.19463   0.62684   0.51919
C          C       0.37316   0.56779   0.51919
C          C       0.43221   0.80537   0.51919
C          C       0.74043   0.35550   0.56094
C          C       0.64450   0.38493   0.56094
C          C       0.61507   0.25957   0.56094
C          C       0.25957   0.64450   0.56094
C          C       0.35550   0.61507   0.56094
C          C       0.38493   0.74043   0.56094
C          C       0.71749   0.40624   0.58360
C          C       0.59376   0.31125   0.58360
C          C       0.68875   0.28251   0.58360
C          C       0.28251   0.59376   0.58360
C          C       0.40624   0.68875   0.58360
C          C       0.31125   0.71749   0.58360
H          H       0.07361   0.62608   0.96492
H          H       0.37392   0.44753   0.96492
H          H       0.55247   0.92639   0.96492
H          H       0.92639   0.37392   0.96492
H          H       0.62608   0.55247   0.96492
H          H       0.44753   0.07361   0.96492
C          C       0.94197   0.59011   0.98577
C          C       0.40989   0.35186   0.98577
C          C       0.64814   0.05803   0.98577
C          C       0.05803   0.40989   0.98577
C          C       0.59011   0.64814   0.98577
C          C       0.35186   0.94197   0.98577
H          H       0.81865   0.33313   0.51878
H          H       0.66687   0.48552   0.51878
H          H       0.51448   0.18135   0.51878
H          H       0.18135   0.66687   0.51878
H          H       0.33313   0.51448   0.51878
H          H       0.48552   0.81865   0.51878
O          O       0.75803   0.46500   0.62833
O          O       0.53500   0.29303   0.62833
O          O       0.70697   0.24197   0.62833
O          O       0.24197   0.53500   0.62833
O          O       0.46500   0.70697   0.62833
O          O       0.29303   0.75803   0.62833
H          H       0.16424   0.52935   0.90097
H          H       0.47065   0.63489   0.90097
H          H       0.36511   0.83576   0.90097
H          H       0.83576   0.47065   0.90097
H          H       0.52935   0.36511   0.90097
H          H       0.63489   0.16424   0.90097
H          H       0.89529   0.56757   0.57037
H          H       0.43243   0.32772   0.57037
H          H       0.67228   0.10471   0.57037
H          H       0.10471   0.43243   0.57037
H          H       0.56757   0.67228   0.57037
H          H       0.32772   0.89529   0.57037
H          H       0.92759   0.59903   0.85216
H          H       0.40097   0.32856   0.85216
H          H       0.67144   0.07241   0.85216
H          H       0.07241   0.40097   0.85216
H          H       0.59903   0.67144   0.85216
H          H       0.32856   0.92759   0.85216
H          H       0.97968   0.64034   0.54406
H          H       0.35966   0.33934   0.54406
H          H       0.66066   0.02032   0.54406
H          H       0.02032   0.35966   0.54406
H          H       0.64034   0.66066   0.54406
H          H       0.33934   0.97968   0.54406
