data_crystal

_cell_length_a    17.33290
_cell_length_b    17.33290
_cell_length_c    9.37520
_cell_angle_alpha 90.00000
_cell_angle_beta  90.00000
_cell_angle_gamma 120.00000

_space_group_name_Hall 'P 1'
_space_group_name_H-M_alt 'P 1'

loop_
_symmetry_equiv_pos_as_xyz
 'x,y,z'

loop_
_atom_site_label
_atom_site_type_symbol
_atom_site_fract_x
_atom_site_fract_y
_atom_site_fract_z
C          C       0.70070   0.26970   0.01443
C          C       0.73030   0.43100   0.01443
C          C       0.56900   0.29930   0.01443
C          C       0.76498   0.36750   0.01426
C          C       0.63250   0.39748   0.01426
C          C       0.60252   0.23502   0.01426
C          C       0.59807   0.46587   0.01498
C          C       0.53413   0.13220   0.01498
C          C       0.86780   0.40193   0.01498
N          N       0.50879   0.43756   0.49372
N          N       0.56244   0.07123   0.49372
N          N       0.92877   0.49121   0.49372
C          C       0.46748   0.49740   0.49432
C          C       0.50260   0.97008   0.49432
C          C       0.02992   0.53252   0.49432
C          C       0.50860   0.58417   0.07497
C          C       0.41583   0.92443   0.07497
C          C       0.07557   0.49140   0.07497
C          C       0.46472   0.63925   0.07422
C          C       0.36075   0.82547   0.07422
C          C       0.17453   0.53528   0.07422
C          C       0.37885   0.60920   0.49415
C          C       0.39080   0.76965   0.49415
C          C       0.23035   0.62115   0.49415
C          C       0.33793   0.52161   0.41559
C          C       0.47839   0.81632   0.41559
C          C       0.18368   0.66207   0.41559
C          C       0.38151   0.46625   0.41654
C          C       0.53375   0.91526   0.41654
C          C       0.08474   0.61849   0.41654
H          H       0.72704   0.22040   0.01485
H          H       0.77960   0.50664   0.01485
H          H       0.49336   0.27296   0.01485
H          H       0.64928   0.54050   0.02824
H          H       0.45950   0.10878   0.02824
H          H       0.89122   0.35072   0.02824
H          H       0.57311   0.60853   0.14162
H          H       0.39147   0.96458   0.14162
H          H       0.03542   0.42689   0.14162
H          H       0.49808   0.70559   0.13604
H          H       0.29441   0.79249   0.13604
H          H       0.20751   0.50192   0.13604
H          H       0.27169   0.49539   0.35489
H          H       0.50461   0.77630   0.35489
H          H       0.22370   0.72831   0.35489
H          H       0.34900   0.39912   0.35512
H          H       0.60088   0.94988   0.35512
H          H       0.05012   0.65100   0.35512
N          N       0.33333   0.66667   0.49377
C          C       0.70070   0.26970   0.51443
C          C       0.73030   0.43100   0.51443
C          C       0.56900   0.29930   0.51443
C          C       0.76498   0.36750   0.51426
C          C       0.63250   0.39748   0.51426
C          C       0.60252   0.23502   0.51426
C          C       0.59807   0.46587   0.51498
C          C       0.53413   0.13220   0.51498
C          C       0.86780   0.40193   0.51498
N          N       0.50879   0.43756   0.99372
N          N       0.56244   0.07123   0.99372
N          N       0.92877   0.49121   0.99372
C          C       0.46748   0.49740   0.99432
C          C       0.50260   0.97008   0.99432
C          C       0.02992   0.53252   0.99432
C          C       0.50860   0.58417   0.57497
C          C       0.41583   0.92443   0.57497
C          C       0.07557   0.49140   0.57497
C          C       0.46472   0.63925   0.57422
C          C       0.36075   0.82547   0.57422
C          C       0.17453   0.53528   0.57422
C          C       0.37885   0.60920   0.99415
C          C       0.39080   0.76965   0.99415
C          C       0.23035   0.62115   0.99415
C          C       0.33793   0.52161   0.91559
C          C       0.47839   0.81632   0.91559
C          C       0.18368   0.66207   0.91559
C          C       0.38151   0.46625   0.91654
C          C       0.53375   0.91526   0.91654
C          C       0.08474   0.61849   0.91654
H          H       0.72704   0.22040   0.51484
H          H       0.77960   0.50664   0.51484
H          H       0.49336   0.27296   0.51484
H          H       0.64928   0.54050   0.52825
H          H       0.45950   0.10878   0.52825
H          H       0.89122   0.35072   0.52825
H          H       0.57311   0.60853   0.64162
H          H       0.39147   0.96458   0.64162
H          H       0.03542   0.42689   0.64162
H          H       0.49808   0.70559   0.63604
H          H       0.29441   0.79249   0.63604
H          H       0.20751   0.50192   0.63604
H          H       0.27169   0.49539   0.85489
H          H       0.50461   0.77630   0.85489
H          H       0.22370   0.72831   0.85489
H          H       0.34900   0.39912   0.85512
H          H       0.60088   0.94988   0.85512
H          H       0.05012   0.65100   0.85512
N          N       0.33333   0.66667   0.99377
