data_crystal

_cell_length_a    16.47050
_cell_length_b    30.78260
_cell_length_c    6.03380
_cell_angle_alpha 90.00000
_cell_angle_beta  90.00000
_cell_angle_gamma 90.00000

_space_group_name_Hall 'P 1'
_space_group_name_H-M_alt 'P 1'

loop_
_symmetry_equiv_pos_as_xyz
 'x,y,z'

loop_
_atom_site_label
_atom_site_type_symbol
_atom_site_fract_x
_atom_site_fract_y
_atom_site_fract_z
C          C       0.93318   0.07953   0.25000
C          C       0.06682   0.92047   0.25000
C          C       0.06682   0.07953   0.25000
C          C       0.93318   0.92047   0.25000
C          C       0.43318   0.57953   0.25000
C          C       0.56682   0.42047   0.25000
C          C       0.56682   0.57953   0.25000
C          C       0.43318   0.42047   0.25000
C          C       0.93550   0.04013   0.25000
C          C       0.06450   0.95987   0.25000
C          C       0.06450   0.04013   0.25000
C          C       0.93550   0.95987   0.25000
C          C       0.43550   0.54013   0.25000
C          C       0.56450   0.45987   0.25000
C          C       0.56450   0.54013   0.25000
C          C       0.43550   0.45987   0.25000
C          C       0.87449   0.01853   0.25000
C          C       0.12551   0.98147   0.25000
C          C       0.12551   0.01853   0.25000
C          C       0.87449   0.98147   0.25000
C          C       0.37449   0.51853   0.25000
C          C       0.62551   0.48147   0.25000
C          C       0.62551   0.51853   0.25000
C          C       0.37449   0.48147   0.25000
C          C       0.87102   0.89547   0.25000
C          C       0.12898   0.10453   0.25000
C          C       0.12898   0.89547   0.25000
C          C       0.87102   0.10453   0.25000
C          C       0.37102   0.39547   0.25000
C          C       0.62898   0.60453   0.25000
C          C       0.62898   0.39547   0.25000
C          C       0.37102   0.60453   0.25000
C          C       0.79751   0.90557   0.25000
C          C       0.20249   0.09443   0.25000
C          C       0.20249   0.90557   0.25000
C          C       0.79751   0.09443   0.25000
C          C       0.29751   0.40557   0.25000
C          C       0.70249   0.59443   0.25000
C          C       0.70249   0.40557   0.25000
C          C       0.29751   0.59443   0.25000
C          C       0.74187   0.88129   0.25000
C          C       0.25813   0.11871   0.25000
C          C       0.25813   0.88129   0.25000
C          C       0.74187   0.11871   0.25000
C          C       0.24187   0.38129   0.25000
C          C       0.75813   0.61871   0.25000
C          C       0.75813   0.38129   0.25000
C          C       0.24187   0.61871   0.25000
C          C       0.75100   0.84320   0.25000
C          C       0.24900   0.15680   0.25000
C          C       0.24900   0.84320   0.25000
C          C       0.75100   0.15680   0.25000
C          C       0.25100   0.34320   0.25000
C          C       0.74900   0.65680   0.25000
C          C       0.74900   0.34320   0.25000
C          C       0.25100   0.65680   0.25000
C          C       0.82209   0.83162   0.25000
C          C       0.17791   0.16838   0.25000
C          C       0.17791   0.83162   0.25000
C          C       0.82209   0.16838   0.25000
C          C       0.32209   0.33162   0.25000
C          C       0.67791   0.66838   0.25000
C          C       0.67791   0.33162   0.25000
C          C       0.32209   0.66838   0.25000
C          C       0.87838   0.85595   0.25000
C          C       0.12162   0.14405   0.25000
C          C       0.12162   0.85595   0.25000
C          C       0.87838   0.14405   0.25000
C          C       0.37838   0.35595   0.25000
C          C       0.62162   0.64405   0.25000
C          C       0.62162   0.35595   0.25000
C          C       0.37838   0.64405   0.25000
N          N       0.69283   0.81827   0.25000
N          N       0.30717   0.18173   0.25000
N          N       0.30717   0.81827   0.25000
N          N       0.69283   0.18173   0.25000
N          N       0.19283   0.31827   0.25000
N          N       0.80717   0.68173   0.25000
N          N       0.80717   0.31827   0.25000
N          N       0.19283   0.68173   0.25000
C          C       0.62719   0.82976   0.25000
C          C       0.37281   0.17024   0.25000
C          C       0.37281   0.82976   0.25000
C          C       0.62719   0.17024   0.25000
C          C       0.12719   0.32976   0.25000
C          C       0.87281   0.67024   0.25000
C          C       0.87281   0.32976   0.25000
C          C       0.12719   0.67024   0.25000
C          C       0.56581   0.80558   0.25000
C          C       0.43419   0.19442   0.25000
C          C       0.43419   0.80558   0.25000
C          C       0.56581   0.19442   0.25000
C          C       0.06581   0.30558   0.25000
C          C       0.93419   0.69442   0.25000
C          C       0.93419   0.30558   0.25000
C          C       0.06581   0.69442   0.25000
C          C       0.43546   0.76704   0.25000
C          C       0.56454   0.23296   0.25000
C          C       0.56454   0.76704   0.25000
C          C       0.43546   0.23296   0.25000
C          C       0.93546   0.26704   0.25000
C          C       0.06454   0.73296   0.25000
C          C       0.06454   0.26704   0.25000
C          C       0.93546   0.73296   0.25000
H          H       0.82070   0.02829   0.25000
H          H       0.17930   0.97171   0.25000
H          H       0.17930   0.02829   0.25000
H          H       0.82070   0.97171   0.25000
H          H       0.32070   0.52829   0.25000
H          H       0.67930   0.47171   0.25000
H          H       0.67930   0.52829   0.25000
H          H       0.32070   0.47171   0.25000
H          H       0.77502   0.93280   0.25000
H          H       0.22498   0.06720   0.25000
H          H       0.22498   0.93280   0.25000
H          H       0.77502   0.06720   0.25000
H          H       0.27502   0.43280   0.25000
H          H       0.72498   0.56720   0.25000
H          H       0.72498   0.43280   0.25000
H          H       0.27502   0.56720   0.25000
H          H       0.83362   0.80208   0.25000
H          H       0.16638   0.19792   0.25000
H          H       0.16638   0.80208   0.25000
H          H       0.83362   0.19792   0.25000
H          H       0.33362   0.30208   0.25000
H          H       0.66638   0.69792   0.25000
H          H       0.66638   0.30208   0.25000
H          H       0.33362   0.69792   0.25000
H          H       0.92976   0.84172   0.25000
H          H       0.07024   0.15828   0.25000
H          H       0.07024   0.84172   0.25000
H          H       0.92976   0.15828   0.25000
H          H       0.42976   0.34172   0.25000
H          H       0.57024   0.65828   0.25000
H          H       0.57024   0.34172   0.25000
H          H       0.42976   0.65828   0.25000
H          H       0.31129   0.89376   0.25000
H          H       0.68871   0.10624   0.25000
H          H       0.68871   0.89376   0.25000
H          H       0.31129   0.10624   0.25000
H          H       0.81129   0.39376   0.25000
H          H       0.18871   0.60624   0.25000
H          H       0.18871   0.39376   0.25000
H          H       0.81129   0.60624   0.25000
H          H       0.61276   0.85892   0.25000
H          H       0.38724   0.14108   0.25000
H          H       0.38724   0.85892   0.25000
H          H       0.61276   0.14108   0.25000
H          H       0.11276   0.35892   0.25000
H          H       0.88724   0.64108   0.25000
H          H       0.88724   0.35892   0.25000
H          H       0.11276   0.64108   0.25000
H          H       0.38524   0.75169   0.25000
H          H       0.61476   0.24831   0.25000
H          H       0.61476   0.75169   0.25000
H          H       0.38524   0.24831   0.25000
H          H       0.88524   0.25169   0.25000
H          H       0.11476   0.74831   0.25000
H          H       0.11476   0.25169   0.25000
H          H       0.88524   0.74831   0.25000
C          C       0.00000   0.01975   0.25000
C          C       0.00000   0.98025   0.25000
C          C       0.50000   0.51975   0.25000
C          C       0.50000   0.48025   0.25000
C          C       0.00000   0.09587   0.25000
C          C       0.00000   0.90413   0.25000
C          C       0.50000   0.59587   0.25000
C          C       0.50000   0.40413   0.25000
H          H       0.00000   0.12542   0.25000
H          H       0.00000   0.87458   0.25000
H          H       0.50000   0.62542   0.25000
H          H       0.50000   0.37458   0.25000
C          C       0.00000   0.32338   0.25000
C          C       0.00000   0.67662   0.25000
C          C       0.50000   0.82338   0.25000
C          C       0.50000   0.17662   0.25000
C          C       0.00000   0.24805   0.25000
C          C       0.00000   0.75195   0.25000
C          C       0.50000   0.74805   0.25000
C          C       0.50000   0.25195   0.25000
H          H       0.00000   0.35351   0.25000
H          H       0.00000   0.64649   0.25000
H          H       0.50000   0.85351   0.25000
H          H       0.50000   0.14649   0.25000
H          H       0.00000   0.21794   0.25000
H          H       0.00000   0.78206   0.25000
H          H       0.50000   0.71794   0.25000
H          H       0.50000   0.28206   0.25000
C          C       0.93318   0.07953   0.75000
C          C       0.06682   0.92047   0.75000
C          C       0.06682   0.07953   0.75000
C          C       0.93318   0.92047   0.75000
C          C       0.43318   0.57953   0.75000
C          C       0.56682   0.42047   0.75000
C          C       0.56682   0.57953   0.75000
C          C       0.43318   0.42047   0.75000
C          C       0.93550   0.04013   0.75000
C          C       0.06450   0.95987   0.75000
C          C       0.06450   0.04013   0.75000
C          C       0.93550   0.95987   0.75000
C          C       0.43550   0.54013   0.75000
C          C       0.56450   0.45987   0.75000
C          C       0.56450   0.54013   0.75000
C          C       0.43550   0.45987   0.75000
C          C       0.87449   0.01853   0.75000
C          C       0.12551   0.98147   0.75000
C          C       0.12551   0.01853   0.75000
C          C       0.87449   0.98147   0.75000
C          C       0.37449   0.51853   0.75000
C          C       0.62551   0.48147   0.75000
C          C       0.62551   0.51853   0.75000
C          C       0.37449   0.48147   0.75000
C          C       0.87102   0.89547   0.75000
C          C       0.12898   0.10453   0.75000
C          C       0.12898   0.89547   0.75000
C          C       0.87102   0.10453   0.75000
C          C       0.37102   0.39547   0.75000
C          C       0.62898   0.60453   0.75000
C          C       0.62898   0.39547   0.75000
C          C       0.37102   0.60453   0.75000
C          C       0.79751   0.90557   0.75000
C          C       0.20249   0.09443   0.75000
C          C       0.20249   0.90557   0.75000
C          C       0.79751   0.09443   0.75000
C          C       0.29751   0.40557   0.75000
C          C       0.70249   0.59443   0.75000
C          C       0.70249   0.40557   0.75000
C          C       0.29751   0.59443   0.75000
C          C       0.74187   0.88129   0.75000
C          C       0.25813   0.11871   0.75000
C          C       0.25813   0.88129   0.75000
C          C       0.74187   0.11871   0.75000
C          C       0.24187   0.38129   0.75000
C          C       0.75813   0.61871   0.75000
C          C       0.75813   0.38129   0.75000
C          C       0.24187   0.61871   0.75000
C          C       0.75100   0.84320   0.75000
C          C       0.24900   0.15680   0.75000
C          C       0.24900   0.84320   0.75000
C          C       0.75100   0.15680   0.75000
C          C       0.25100   0.34320   0.75000
C          C       0.74900   0.65680   0.75000
C          C       0.74900   0.34320   0.75000
C          C       0.25100   0.65680   0.75000
C          C       0.82209   0.83162   0.75000
C          C       0.17791   0.16838   0.75000
C          C       0.17791   0.83162   0.75000
C          C       0.82209   0.16838   0.75000
C          C       0.32209   0.33162   0.75000
C          C       0.67791   0.66838   0.75000
C          C       0.67791   0.33162   0.75000
C          C       0.32209   0.66838   0.75000
C          C       0.87838   0.85595   0.75000
C          C       0.12162   0.14405   0.75000
C          C       0.12162   0.85595   0.75000
C          C       0.87838   0.14405   0.75000
C          C       0.37838   0.35595   0.75000
C          C       0.62162   0.64405   0.75000
C          C       0.62162   0.35595   0.75000
C          C       0.37838   0.64405   0.75000
N          N       0.69283   0.81827   0.75000
N          N       0.30717   0.18173   0.75000
N          N       0.30717   0.81827   0.75000
N          N       0.69283   0.18173   0.75000
N          N       0.19283   0.31827   0.75000
N          N       0.80717   0.68173   0.75000
N          N       0.80717   0.31827   0.75000
N          N       0.19283   0.68173   0.75000
C          C       0.62719   0.82976   0.75000
C          C       0.37281   0.17024   0.75000
C          C       0.37281   0.82976   0.75000
C          C       0.62719   0.17024   0.75000
C          C       0.12719   0.32976   0.75000
C          C       0.87281   0.67024   0.75000
C          C       0.87281   0.32976   0.75000
C          C       0.12719   0.67024   0.75000
C          C       0.56581   0.80558   0.75000
C          C       0.43419   0.19442   0.75000
C          C       0.43419   0.80558   0.75000
C          C       0.56581   0.19442   0.75000
C          C       0.06581   0.30558   0.75000
C          C       0.93419   0.69442   0.75000
C          C       0.93419   0.30558   0.75000
C          C       0.06581   0.69442   0.75000
C          C       0.43546   0.76704   0.75000
C          C       0.56454   0.23296   0.75000
C          C       0.56454   0.76704   0.75000
C          C       0.43546   0.23296   0.75000
C          C       0.93546   0.26704   0.75000
C          C       0.06454   0.73296   0.75000
C          C       0.06454   0.26704   0.75000
C          C       0.93546   0.73296   0.75000
H          H       0.82070   0.02829   0.75000
H          H       0.17930   0.97171   0.75000
H          H       0.17930   0.02829   0.75000
H          H       0.82070   0.97171   0.75000
H          H       0.32070   0.52829   0.75000
H          H       0.67930   0.47171   0.75000
H          H       0.67930   0.52829   0.75000
H          H       0.32070   0.47171   0.75000
H          H       0.77502   0.93280   0.75000
H          H       0.22498   0.06720   0.75000
H          H       0.22498   0.93280   0.75000
H          H       0.77502   0.06720   0.75000
H          H       0.27502   0.43280   0.75000
H          H       0.72498   0.56720   0.75000
H          H       0.72498   0.43280   0.75000
H          H       0.27502   0.56720   0.75000
H          H       0.83362   0.80208   0.75000
H          H       0.16638   0.19792   0.75000
H          H       0.16638   0.80208   0.75000
H          H       0.83362   0.19792   0.75000
H          H       0.33362   0.30208   0.75000
H          H       0.66638   0.69792   0.75000
H          H       0.66638   0.30208   0.75000
H          H       0.33362   0.69792   0.75000
H          H       0.92976   0.84172   0.75000
H          H       0.07024   0.15828   0.75000
H          H       0.07024   0.84172   0.75000
H          H       0.92976   0.15828   0.75000
H          H       0.42976   0.34172   0.75000
H          H       0.57024   0.65828   0.75000
H          H       0.57024   0.34172   0.75000
H          H       0.42976   0.65828   0.75000
H          H       0.31129   0.89376   0.75000
H          H       0.68871   0.10624   0.75000
H          H       0.68871   0.89376   0.75000
H          H       0.31129   0.10624   0.75000
H          H       0.81129   0.39376   0.75000
H          H       0.18871   0.60624   0.75000
H          H       0.18871   0.39376   0.75000
H          H       0.81129   0.60624   0.75000
H          H       0.61276   0.85892   0.75000
H          H       0.38724   0.14108   0.75000
H          H       0.38724   0.85892   0.75000
H          H       0.61276   0.14108   0.75000
H          H       0.11276   0.35892   0.75000
H          H       0.88724   0.64108   0.75000
H          H       0.88724   0.35892   0.75000
H          H       0.11276   0.64108   0.75000
H          H       0.38524   0.75169   0.75000
H          H       0.61476   0.24831   0.75000
H          H       0.61476   0.75169   0.75000
H          H       0.38524   0.24831   0.75000
H          H       0.88524   0.25169   0.75000
H          H       0.11476   0.74831   0.75000
H          H       0.11476   0.25169   0.75000
H          H       0.88524   0.74831   0.75000
C          C       0.00000   0.01975   0.75000
C          C       0.00000   0.98025   0.75000
C          C       0.50000   0.51975   0.75000
C          C       0.50000   0.48025   0.75000
C          C       0.00000   0.09587   0.75000
C          C       0.00000   0.90413   0.75000
C          C       0.50000   0.59587   0.75000
C          C       0.50000   0.40413   0.75000
H          H       0.00000   0.12542   0.75000
H          H       0.00000   0.87458   0.75000
H          H       0.50000   0.62542   0.75000
H          H       0.50000   0.37458   0.75000
C          C       0.00000   0.32338   0.75000
C          C       0.00000   0.67662   0.75000
C          C       0.50000   0.82338   0.75000
C          C       0.50000   0.17662   0.75000
C          C       0.00000   0.24805   0.75000
C          C       0.00000   0.75195   0.75000
C          C       0.50000   0.74805   0.75000
C          C       0.50000   0.25195   0.75000
H          H       0.00000   0.35351   0.75000
H          H       0.00000   0.64649   0.75000
H          H       0.50000   0.85351   0.75000
H          H       0.50000   0.14649   0.75000
H          H       0.00000   0.21794   0.75000
H          H       0.00000   0.78206   0.75000
H          H       0.50000   0.71794   0.75000
H          H       0.50000   0.28206   0.75000
