data_crystal

_cell_length_a    38.89900
_cell_length_b    38.89900
_cell_length_c    7.57520
_cell_angle_alpha 90.00000
_cell_angle_beta  90.00000
_cell_angle_gamma 120.00000

_space_group_name_Hall 'P 1'
_space_group_name_H-M_alt 'P 1'

loop_
_symmetry_equiv_pos_as_xyz
 'x,y,z'

loop_
_atom_site_label
_atom_site_type_symbol
_atom_site_fract_x
_atom_site_fract_y
_atom_site_fract_z
N          N       0.62502   0.31425   0.01107
N          N       0.68575   0.31077   0.01107
N          N       0.68923   0.37498   0.01107
N          N       0.37498   0.68575   0.01107
N          N       0.31425   0.68923   0.01107
N          N       0.31077   0.62502   0.01107
C          C       0.64395   0.29140   0.01110
C          C       0.70860   0.35255   0.01110
C          C       0.64745   0.35605   0.01110
C          C       0.35605   0.70860   0.01110
C          C       0.29140   0.64745   0.01110
C          C       0.35255   0.64395   0.01110
C          C       0.62647   0.38084   0.01045
C          C       0.61916   0.24563   0.01045
C          C       0.75437   0.37353   0.01045
C          C       0.37353   0.61916   0.01045
C          C       0.38084   0.75437   0.01045
C          C       0.24563   0.62647   0.01045
C          C       0.64922   0.42390   0.48594
C          C       0.57610   0.22532   0.48594
C          C       0.77468   0.35078   0.48594
C          C       0.35078   0.57610   0.48594
C          C       0.42390   0.77468   0.48594
C          C       0.22532   0.64922   0.48594
C          C       0.62930   0.44711   0.48427
C          C       0.55289   0.18219   0.48427
C          C       0.81781   0.37070   0.48427
C          C       0.37070   0.55289   0.48427
C          C       0.44711   0.81781   0.48427
C          C       0.18219   0.62930   0.48427
C          C       0.58653   0.42806   0.00649
C          C       0.57194   0.15847   0.00649
C          C       0.84153   0.41347   0.00649
C          C       0.41347   0.57194   0.00649
C          C       0.42806   0.84153   0.00649
C          C       0.15847   0.58653   0.00649
C          C       0.56364   0.38504   0.03374
C          C       0.61496   0.17860   0.03374
C          C       0.82140   0.43636   0.03374
C          C       0.43636   0.61496   0.03374
C          C       0.38504   0.82140   0.03374
C          C       0.17860   0.56364   0.03374
C          C       0.58345   0.36170   0.03471
C          C       0.63830   0.22175   0.03471
C          C       0.77825   0.41655   0.03471
C          C       0.41655   0.63830   0.03471
C          C       0.36170   0.77825   0.03471
C          C       0.22175   0.58345   0.03471
N          N       0.56806   0.45374   0.00401
N          N       0.54626   0.11432   0.00401
N          N       0.88568   0.43194   0.00401
N          N       0.43194   0.54626   0.00401
N          N       0.45374   0.88568   0.00401
N          N       0.11432   0.56806   0.00401
C          C       0.52884   0.44143   0.49506
C          C       0.55857   0.08741   0.49506
C          C       0.91259   0.47116   0.49506
C          C       0.47116   0.55857   0.49506
C          C       0.44143   0.91259   0.49506
C          C       0.08741   0.52884   0.49506
C          C       0.51426   0.47155   0.49527
C          C       0.52845   0.04271   0.49527
C          C       0.95729   0.48574   0.49527
C          C       0.48574   0.52845   0.49527
C          C       0.47155   0.95729   0.49527
C          C       0.04271   0.51426   0.49527
C          C       0.54238   0.51424   0.49545
C          C       0.48576   0.02814   0.49545
C          C       0.97186   0.45762   0.49545
C          C       0.45762   0.48576   0.49545
C          C       0.51424   0.97186   0.49545
C          C       0.02814   0.54238   0.49545
C          C       0.52836   0.54264   0.49510
C          C       0.45736   0.98572   0.49510
C          C       0.01428   0.47164   0.49510
C          C       0.47164   0.45736   0.49510
C          C       0.54264   0.01428   0.49510
C          C       0.98572   0.52836   0.49510
O          O       0.44356   0.41498   0.49505
O          O       0.58502   0.02858   0.49505
O          O       0.97142   0.55644   0.49505
O          O       0.55644   0.58502   0.49505
O          O       0.41498   0.97142   0.49505
O          O       0.02858   0.44356   0.49505
H          H       0.68237   0.43951   0.46653
H          H       0.56049   0.24286   0.46653
H          H       0.75714   0.31763   0.46653
H          H       0.31763   0.56049   0.46653
H          H       0.43951   0.75714   0.46653
H          H       0.24286   0.68237   0.46653
H          H       0.64704   0.48019   0.46417
H          H       0.51981   0.16685   0.46417
H          H       0.83315   0.35296   0.46417
H          H       0.35296   0.51981   0.46417
H          H       0.48019   0.83315   0.46417
H          H       0.16685   0.64704   0.46417
H          H       0.53076   0.36927   0.05740
H          H       0.63073   0.16149   0.05740
H          H       0.83851   0.46924   0.05740
H          H       0.46924   0.63073   0.05740
H          H       0.36927   0.83851   0.05740
H          H       0.16149   0.53076   0.05740
H          H       0.56522   0.32866   0.05658
H          H       0.67134   0.23656   0.05658
H          H       0.76344   0.43478   0.05658
H          H       0.43478   0.67134   0.05658
H          H       0.32866   0.76344   0.05658
H          H       0.23656   0.56522   0.05658
H          H       0.50595   0.40904   0.48467
H          H       0.59096   0.09691   0.48467
H          H       0.90309   0.49405   0.48467
H          H       0.49405   0.59096   0.48467
H          H       0.40904   0.90309   0.48467
H          H       0.09691   0.50595   0.48467
H          H       0.57520   0.52546   0.49542
H          H       0.47454   0.04974   0.49542
H          H       0.95026   0.42480   0.49542
H          H       0.42480   0.47454   0.49542
H          H       0.52546   0.95026   0.49542
H          H       0.04974   0.57520   0.49542
H          H       0.41359   0.40774   0.49513
H          H       0.59226   0.00585   0.49513
H          H       0.99415   0.58641   0.49513
H          H       0.58641   0.59226   0.49513
H          H       0.40774   0.99415   0.49513
H          H       0.00585   0.41359   0.49513
N          N       0.62502   0.31425   0.51106
N          N       0.68575   0.31077   0.51106
N          N       0.68923   0.37498   0.51106
N          N       0.37498   0.68575   0.51106
N          N       0.31425   0.68923   0.51106
N          N       0.31077   0.62502   0.51106
C          C       0.64395   0.29140   0.51110
C          C       0.70860   0.35255   0.51110
C          C       0.64745   0.35605   0.51110
C          C       0.35605   0.70860   0.51110
C          C       0.29140   0.64745   0.51110
C          C       0.35255   0.64395   0.51110
C          C       0.62647   0.38084   0.51045
C          C       0.61916   0.24563   0.51045
C          C       0.75437   0.37353   0.51045
C          C       0.37353   0.61916   0.51045
C          C       0.38084   0.75437   0.51045
C          C       0.24563   0.62647   0.51045
C          C       0.64922   0.42390   0.98594
C          C       0.57610   0.22532   0.98594
C          C       0.77468   0.35078   0.98594
C          C       0.35078   0.57610   0.98594
C          C       0.42390   0.77468   0.98594
C          C       0.22532   0.64922   0.98594
C          C       0.62930   0.44711   0.98427
C          C       0.55289   0.18219   0.98427
C          C       0.81781   0.37070   0.98427
C          C       0.37070   0.55289   0.98427
C          C       0.44711   0.81781   0.98427
C          C       0.18219   0.62930   0.98427
C          C       0.58653   0.42806   0.50650
C          C       0.57194   0.15847   0.50650
C          C       0.84153   0.41347   0.50650
C          C       0.41347   0.57194   0.50650
C          C       0.42806   0.84153   0.50650
C          C       0.15847   0.58653   0.50650
C          C       0.56364   0.38504   0.53374
C          C       0.61496   0.17860   0.53374
C          C       0.82140   0.43636   0.53374
C          C       0.43636   0.61496   0.53374
C          C       0.38504   0.82140   0.53374
C          C       0.17860   0.56364   0.53374
C          C       0.58345   0.36170   0.53471
C          C       0.63830   0.22175   0.53471
C          C       0.77825   0.41655   0.53471
C          C       0.41655   0.63830   0.53471
C          C       0.36170   0.77825   0.53471
C          C       0.22175   0.58345   0.53471
N          N       0.56806   0.45374   0.50401
N          N       0.54626   0.11432   0.50401
N          N       0.88568   0.43194   0.50401
N          N       0.43194   0.54626   0.50401
N          N       0.45374   0.88568   0.50401
N          N       0.11432   0.56806   0.50401
C          C       0.52884   0.44143   0.99506
C          C       0.55857   0.08741   0.99506
C          C       0.91259   0.47116   0.99506
C          C       0.47116   0.55857   0.99506
C          C       0.44143   0.91259   0.99506
C          C       0.08741   0.52884   0.99506
C          C       0.51426   0.47155   0.99527
C          C       0.52845   0.04271   0.99527
C          C       0.95729   0.48574   0.99527
C          C       0.48574   0.52845   0.99527
C          C       0.47155   0.95729   0.99527
C          C       0.04271   0.51426   0.99527
C          C       0.54238   0.51424   0.99545
C          C       0.48576   0.02814   0.99545
C          C       0.97186   0.45762   0.99545
C          C       0.45762   0.48576   0.99545
C          C       0.51424   0.97186   0.99545
C          C       0.02814   0.54238   0.99545
C          C       0.52836   0.54264   0.99510
C          C       0.45736   0.98572   0.99510
C          C       0.01428   0.47164   0.99510
C          C       0.47164   0.45736   0.99510
C          C       0.54264   0.01428   0.99510
C          C       0.98572   0.52836   0.99510
O          O       0.44356   0.41498   0.99504
O          O       0.58502   0.02858   0.99504
O          O       0.97142   0.55644   0.99504
O          O       0.55644   0.58502   0.99504
O          O       0.41498   0.97142   0.99504
O          O       0.02858   0.44356   0.99504
H          H       0.68237   0.43951   0.96653
H          H       0.56049   0.24286   0.96653
H          H       0.75714   0.31763   0.96653
H          H       0.31763   0.56049   0.96653
H          H       0.43951   0.75714   0.96653
H          H       0.24286   0.68237   0.96653
H          H       0.64704   0.48019   0.96417
H          H       0.51981   0.16685   0.96417
H          H       0.83315   0.35296   0.96417
H          H       0.35296   0.51981   0.96417
H          H       0.48019   0.83315   0.96417
H          H       0.16685   0.64704   0.96417
H          H       0.53076   0.36927   0.55741
H          H       0.63073   0.16149   0.55741
H          H       0.83851   0.46924   0.55741
H          H       0.46924   0.63073   0.55741
H          H       0.36927   0.83851   0.55741
H          H       0.16149   0.53076   0.55741
H          H       0.56522   0.32866   0.55658
H          H       0.67134   0.23656   0.55658
H          H       0.76344   0.43478   0.55658
H          H       0.43478   0.67134   0.55658
H          H       0.32866   0.76344   0.55658
H          H       0.23656   0.56522   0.55658
H          H       0.50595   0.40904   0.98467
H          H       0.59096   0.09691   0.98467
H          H       0.90309   0.49405   0.98467
H          H       0.49405   0.59096   0.98467
H          H       0.40904   0.90309   0.98467
H          H       0.09691   0.50595   0.98467
H          H       0.57520   0.52546   0.99542
H          H       0.47454   0.04974   0.99542
H          H       0.95026   0.42480   0.99542
H          H       0.42480   0.47454   0.99542
H          H       0.52546   0.95026   0.99542
H          H       0.04974   0.57520   0.99542
H          H       0.41359   0.40774   0.99513
H          H       0.59226   0.00585   0.99513
H          H       0.99415   0.58641   0.99513
H          H       0.58641   0.59226   0.99513
H          H       0.40774   0.99415   0.99513
H          H       0.00585   0.41359   0.99513
