data_crystal

_cell_length_a    31.67770
_cell_length_b    31.67770
_cell_length_c    9.07300
_cell_angle_alpha 90.00000
_cell_angle_beta  90.00000
_cell_angle_gamma 120.00000

_space_group_name_Hall 'P 1'
_space_group_name_H-M_alt 'P 1'

loop_
_symmetry_equiv_pos_as_xyz
 'x,y,z'

loop_
_atom_site_label
_atom_site_type_symbol
_atom_site_fract_x
_atom_site_fract_y
_atom_site_fract_z
C          C       0.28222   0.64304   0.02167
C          C       0.35696   0.63918   0.02167
C          C       0.36082   0.71778   0.02167
C          C       0.71778   0.35696   0.02167
C          C       0.64304   0.36082   0.02167
C          C       0.63918   0.28222   0.02167
C          C       0.71778   0.35696   0.47834
C          C       0.64304   0.36082   0.47834
C          C       0.63918   0.28222   0.47834
C          C       0.28222   0.64304   0.47834
C          C       0.35696   0.63918   0.47834
C          C       0.36082   0.71778   0.47834
C          C       0.40590   0.74242   0.09710
C          C       0.25758   0.66348   0.09710
C          C       0.33652   0.59410   0.09710
C          C       0.59410   0.25758   0.09710
C          C       0.74242   0.33652   0.09710
C          C       0.66348   0.40590   0.09710
C          C       0.59410   0.25758   0.40290
C          C       0.74242   0.33652   0.40290
C          C       0.66348   0.40590   0.40290
C          C       0.40590   0.74242   0.40290
C          C       0.25758   0.66348   0.40290
C          C       0.33652   0.59410   0.40290
C          C       0.43218   0.79175   0.09700
C          C       0.20825   0.64043   0.09700
C          C       0.35957   0.56782   0.09700
C          C       0.56782   0.20825   0.09700
C          C       0.79175   0.35957   0.09700
C          C       0.64043   0.43218   0.09700
C          C       0.56782   0.20825   0.40299
C          C       0.79175   0.35957   0.40299
C          C       0.64043   0.43218   0.40299
C          C       0.43218   0.79175   0.40299
C          C       0.20825   0.64043   0.40299
C          C       0.35957   0.56782   0.40299
C          C       0.41542   0.81940   0.02208
C          C       0.18060   0.59602   0.02208
C          C       0.40398   0.58458   0.02208
C          C       0.58458   0.18060   0.02208
C          C       0.81940   0.40398   0.02208
C          C       0.59602   0.41542   0.02208
C          C       0.58458   0.18060   0.47792
C          C       0.81940   0.40398   0.47792
C          C       0.59602   0.41542   0.47792
C          C       0.41542   0.81940   0.47792
C          C       0.18060   0.59602   0.47792
C          C       0.40398   0.58458   0.47792
C          C       0.37059   0.79495   0.44659
C          C       0.20505   0.57564   0.44659
C          C       0.42436   0.62941   0.44659
C          C       0.62941   0.20505   0.44659
C          C       0.79495   0.42436   0.44659
C          C       0.57564   0.37059   0.44659
C          C       0.62941   0.20505   0.05341
C          C       0.79495   0.42436   0.05341
C          C       0.57564   0.37059   0.05341
C          C       0.37059   0.79495   0.05341
C          C       0.20505   0.57564   0.05341
C          C       0.42436   0.62941   0.05341
C          C       0.34396   0.74562   0.44632
C          C       0.25438   0.59834   0.44632
C          C       0.40166   0.65604   0.44632
C          C       0.65604   0.25438   0.44632
C          C       0.74562   0.40166   0.44632
C          C       0.59834   0.34396   0.44632
C          C       0.65604   0.25438   0.05368
C          C       0.74562   0.40166   0.05368
C          C       0.59834   0.34396   0.05368
C          C       0.34396   0.74562   0.05368
C          C       0.25438   0.59834   0.05368
C          C       0.40166   0.65604   0.05368
N          N       0.44346   0.86922   0.02570
N          N       0.13078   0.57424   0.02570
N          N       0.42576   0.55654   0.02570
N          N       0.55654   0.13078   0.02570
N          N       0.86922   0.42576   0.02570
N          N       0.57424   0.44346   0.02570
N          N       0.55654   0.13078   0.47430
N          N       0.86922   0.42576   0.47430
N          N       0.57424   0.44346   0.47430
N          N       0.44346   0.86922   0.47430
N          N       0.13078   0.57424   0.47430
N          N       0.42576   0.55654   0.47430
C          C       0.46672   0.56654   0.46514
C          C       0.43346   0.90018   0.46514
C          C       0.09982   0.53328   0.46514
C          C       0.53328   0.43346   0.46514
C          C       0.56654   0.09982   0.46514
C          C       0.90018   0.46672   0.46514
C          C       0.53328   0.43346   0.03486
C          C       0.56654   0.09982   0.03486
C          C       0.90018   0.46672   0.03486
C          C       0.46672   0.56654   0.03486
C          C       0.43346   0.90018   0.03486
C          C       0.09982   0.53328   0.03486
C          C       0.48333   0.53279   0.48363
C          C       0.46721   0.95054   0.48363
C          C       0.04946   0.51667   0.48363
C          C       0.51667   0.46721   0.48363
C          C       0.53279   0.04946   0.48363
C          C       0.95054   0.48333   0.48363
C          C       0.51667   0.46721   0.01637
C          C       0.53279   0.04946   0.01637
C          C       0.95054   0.48333   0.01637
C          C       0.48333   0.53279   0.01637
C          C       0.46721   0.95054   0.01637
C          C       0.04946   0.51667   0.01637
C          C       0.51154   0.96749   0.05790
C          C       0.03251   0.54405   0.05790
C          C       0.45595   0.48846   0.05790
C          C       0.48846   0.03251   0.05790
C          C       0.96749   0.45595   0.05790
C          C       0.54405   0.51154   0.05790
C          C       0.48846   0.03251   0.44211
C          C       0.96749   0.45595   0.44211
C          C       0.54405   0.51154   0.44211
C          C       0.51154   0.96749   0.44211
C          C       0.03251   0.54405   0.44211
C          C       0.45595   0.48846   0.44211
C          C       0.54410   0.01536   0.07390
C          C       0.98464   0.52874   0.07390
C          C       0.47126   0.45590   0.07390
C          C       0.45590   0.98464   0.07390
C          C       0.01536   0.47126   0.07390
C          C       0.52874   0.54410   0.07390
C          C       0.45590   0.98464   0.42610
C          C       0.01536   0.47126   0.42610
C          C       0.52874   0.54410   0.42610
C          C       0.54410   0.01536   0.42610
C          C       0.98464   0.52874   0.42610
C          C       0.47126   0.45590   0.42610
H          H       0.42085   0.72272   0.15951
H          H       0.27728   0.69813   0.15951
H          H       0.30187   0.57915   0.15951
H          H       0.57915   0.27728   0.15951
H          H       0.72272   0.30187   0.15951
H          H       0.69813   0.42085   0.15951
H          H       0.57915   0.27728   0.34049
H          H       0.72272   0.30187   0.34049
H          H       0.69813   0.42085   0.34049
H          H       0.42085   0.72272   0.34049
H          H       0.27728   0.69813   0.34049
H          H       0.30187   0.57915   0.34049
H          H       0.46700   0.80921   0.15899
H          H       0.19079   0.65779   0.15899
H          H       0.34221   0.53300   0.15899
H          H       0.53300   0.19079   0.15899
H          H       0.80921   0.34221   0.15899
H          H       0.65779   0.46700   0.15899
H          H       0.53300   0.19079   0.34101
H          H       0.80921   0.34221   0.34101
H          H       0.65779   0.46700   0.34101
H          H       0.46700   0.80921   0.34101
H          H       0.19079   0.65779   0.34101
H          H       0.34221   0.53300   0.34101
H          H       0.35541   0.81443   0.38437
H          H       0.18557   0.54098   0.38437
H          H       0.45902   0.64459   0.38437
H          H       0.64459   0.18557   0.38437
H          H       0.81443   0.45902   0.38437
H          H       0.54098   0.35541   0.38437
H          H       0.64459   0.18557   0.11563
H          H       0.81443   0.45902   0.11563
H          H       0.54098   0.35541   0.11563
H          H       0.35541   0.81443   0.11563
H          H       0.18557   0.54098   0.11563
H          H       0.45902   0.64459   0.11563
H          H       0.30921   0.72844   0.38380
H          H       0.27156   0.58077   0.38380
H          H       0.41923   0.69079   0.38380
H          H       0.69079   0.27156   0.38380
H          H       0.72844   0.41923   0.38380
H          H       0.58077   0.30921   0.38380
H          H       0.69079   0.27156   0.11620
H          H       0.72844   0.41923   0.11620
H          H       0.58077   0.30921   0.11620
H          H       0.30921   0.72844   0.11620
H          H       0.27156   0.58077   0.11620
H          H       0.41923   0.69079   0.11620
H          H       0.49024   0.59988   0.39931
H          H       0.40012   0.89036   0.39931
H          H       0.10964   0.50976   0.39931
H          H       0.50976   0.40012   0.39931
H          H       0.59988   0.10964   0.39931
H          H       0.89036   0.49024   0.39931
H          H       0.50976   0.40012   0.10070
H          H       0.59988   0.10964   0.10070
H          H       0.89036   0.49024   0.10070
H          H       0.49024   0.59988   0.10070
H          H       0.40012   0.89036   0.10070
H          H       0.10964   0.50976   0.10070
H          H       0.52199   0.94245   0.10693
H          H       0.05755   0.57954   0.10693
H          H       0.42046   0.47801   0.10693
H          H       0.47801   0.05755   0.10693
H          H       0.94245   0.42046   0.10693
H          H       0.57954   0.52199   0.10693
H          H       0.47801   0.05755   0.39308
H          H       0.94245   0.42046   0.39308
H          H       0.57954   0.52199   0.39308
H          H       0.52199   0.94245   0.39308
H          H       0.05755   0.57954   0.39308
H          H       0.42046   0.47801   0.39308
O          O       0.58752   0.02869   0.14814
O          O       0.97131   0.55883   0.14814
O          O       0.44117   0.41248   0.14814
O          O       0.41248   0.97131   0.14814
O          O       0.02869   0.44117   0.14814
O          O       0.55883   0.58752   0.14814
O          O       0.41248   0.97131   0.35186
O          O       0.02869   0.44117   0.35186
O          O       0.55883   0.58752   0.35186
O          O       0.58752   0.02869   0.35186
O          O       0.97131   0.55883   0.35186
O          O       0.44117   0.41248   0.35186
C          C       0.41038   0.38039   0.02477
C          C       0.61961   0.02999   0.02477
C          C       0.97001   0.58962   0.02477
C          C       0.58962   0.61961   0.02477
C          C       0.38039   0.97001   0.02477
C          C       0.02999   0.41038   0.02477
C          C       0.58962   0.61961   0.47523
C          C       0.38039   0.97001   0.47523
C          C       0.02999   0.41038   0.47523
C          C       0.41038   0.38039   0.47523
C          C       0.61961   0.02999   0.47523
C          C       0.97001   0.58962   0.47523
H          H       0.43056   0.37077   0.43858
H          H       0.62923   0.05979   0.43858
H          H       0.94021   0.56944   0.43858
H          H       0.56944   0.62923   0.43858
H          H       0.37077   0.94021   0.43858
H          H       0.05979   0.43056   0.43858
H          H       0.56944   0.62923   0.06142
H          H       0.37077   0.94021   0.06142
H          H       0.05979   0.43056   0.06142
H          H       0.43056   0.37077   0.06142
H          H       0.62923   0.05979   0.06142
H          H       0.94021   0.56944   0.06142
H          H       0.39303   0.39627   0.45241
H          H       0.60373   0.99676   0.45241
H          H       0.00324   0.60697   0.45241
H          H       0.60697   0.60373   0.45241
H          H       0.39627   0.00324   0.45241
H          H       0.99676   0.39303   0.45241
H          H       0.60697   0.60373   0.04759
H          H       0.39627   0.00324   0.04759
H          H       0.99676   0.39303   0.04759
H          H       0.39303   0.39627   0.04759
H          H       0.60373   0.99676   0.04759
H          H       0.00324   0.60697   0.04759
H          H       0.38281   0.34798   0.08571
H          H       0.65202   0.03483   0.08571
H          H       0.96517   0.61719   0.08571
H          H       0.61719   0.65202   0.08571
H          H       0.34798   0.96517   0.08571
H          H       0.03483   0.38281   0.08571
H          H       0.61719   0.65202   0.41429
H          H       0.34798   0.96517   0.41429
H          H       0.03483   0.38281   0.41429
H          H       0.38281   0.34798   0.41429
H          H       0.65202   0.03483   0.41429
H          H       0.96517   0.61719   0.41429
N          N       0.33333   0.66667   0.02159
N          N       0.66667   0.33333   0.02159
N          N       0.66667   0.33333   0.47841
N          N       0.33333   0.66667   0.47841
C          C       0.40590   0.74242   0.59710
C          C       0.25758   0.66348   0.59710
C          C       0.33652   0.59410   0.59710
C          C       0.59410   0.25758   0.59710
C          C       0.74242   0.33652   0.59710
C          C       0.66348   0.40590   0.59710
C          C       0.59410   0.25758   0.90290
C          C       0.74242   0.33652   0.90290
C          C       0.66348   0.40590   0.90290
C          C       0.40590   0.74242   0.90290
C          C       0.25758   0.66348   0.90290
C          C       0.33652   0.59410   0.90290
C          C       0.43218   0.79175   0.59701
C          C       0.20825   0.64043   0.59701
C          C       0.35957   0.56782   0.59701
C          C       0.56782   0.20825   0.59701
C          C       0.79175   0.35957   0.59701
C          C       0.64043   0.43218   0.59701
C          C       0.56782   0.20825   0.90299
C          C       0.79175   0.35957   0.90299
C          C       0.64043   0.43218   0.90299
C          C       0.43218   0.79175   0.90299
C          C       0.20825   0.64043   0.90299
C          C       0.35957   0.56782   0.90299
C          C       0.37059   0.79495   0.94659
C          C       0.20505   0.57564   0.94659
C          C       0.42436   0.62941   0.94659
C          C       0.62941   0.20505   0.94659
C          C       0.79495   0.42436   0.94659
C          C       0.57564   0.37059   0.94659
C          C       0.62941   0.20505   0.55341
C          C       0.79495   0.42436   0.55341
C          C       0.57564   0.37059   0.55341
C          C       0.37059   0.79495   0.55341
C          C       0.20505   0.57564   0.55341
C          C       0.42436   0.62941   0.55341
C          C       0.34396   0.74562   0.94633
C          C       0.25438   0.59834   0.94633
C          C       0.40166   0.65604   0.94633
C          C       0.65604   0.25438   0.94633
C          C       0.74562   0.40166   0.94633
C          C       0.59834   0.34396   0.94633
C          C       0.65604   0.25438   0.55367
C          C       0.74562   0.40166   0.55367
C          C       0.59834   0.34396   0.55367
C          C       0.34396   0.74562   0.55367
C          C       0.25438   0.59834   0.55367
C          C       0.40166   0.65604   0.55367
C          C       0.51154   0.96749   0.55790
C          C       0.03251   0.54405   0.55790
C          C       0.45595   0.48846   0.55790
C          C       0.48846   0.03251   0.55790
C          C       0.96749   0.45595   0.55790
C          C       0.54405   0.51154   0.55790
C          C       0.48846   0.03251   0.94211
C          C       0.96749   0.45595   0.94211
C          C       0.54405   0.51154   0.94211
C          C       0.51154   0.96749   0.94211
C          C       0.03251   0.54405   0.94211
C          C       0.45595   0.48846   0.94211
C          C       0.54410   0.01536   0.57390
C          C       0.98464   0.52874   0.57390
C          C       0.47126   0.45590   0.57390
C          C       0.45590   0.98464   0.57390
C          C       0.01536   0.47126   0.57390
C          C       0.52874   0.54410   0.57390
C          C       0.45590   0.98464   0.92610
C          C       0.01536   0.47126   0.92610
C          C       0.52874   0.54410   0.92610
C          C       0.54410   0.01536   0.92610
C          C       0.98464   0.52874   0.92610
C          C       0.47126   0.45590   0.92610
H          H       0.42085   0.72272   0.65951
H          H       0.27728   0.69813   0.65951
H          H       0.30187   0.57915   0.65951
H          H       0.57915   0.27728   0.65951
H          H       0.72272   0.30187   0.65951
H          H       0.69813   0.42085   0.65951
H          H       0.57915   0.27728   0.84049
H          H       0.72272   0.30187   0.84049
H          H       0.69813   0.42085   0.84049
H          H       0.42085   0.72272   0.84049
H          H       0.27728   0.69813   0.84049
H          H       0.30187   0.57915   0.84049
H          H       0.46700   0.80921   0.65900
H          H       0.19079   0.65779   0.65900
H          H       0.34221   0.53300   0.65900
H          H       0.53300   0.19079   0.65900
H          H       0.80921   0.34221   0.65900
H          H       0.65779   0.46700   0.65900
H          H       0.53300   0.19079   0.84100
H          H       0.80921   0.34221   0.84100
H          H       0.65779   0.46700   0.84100
H          H       0.46700   0.80921   0.84100
H          H       0.19079   0.65779   0.84100
H          H       0.34221   0.53300   0.84100
H          H       0.35541   0.81443   0.88437
H          H       0.18557   0.54098   0.88437
H          H       0.45902   0.64459   0.88437
H          H       0.64459   0.18557   0.88437
H          H       0.81443   0.45902   0.88437
H          H       0.54098   0.35541   0.88437
H          H       0.64459   0.18557   0.61563
H          H       0.81443   0.45902   0.61563
H          H       0.54098   0.35541   0.61563
H          H       0.35541   0.81443   0.61563
H          H       0.18557   0.54098   0.61563
H          H       0.45902   0.64459   0.61563
H          H       0.30921   0.72844   0.88380
H          H       0.27156   0.58077   0.88380
H          H       0.41923   0.69079   0.88380
H          H       0.69079   0.27156   0.88380
H          H       0.72844   0.41923   0.88380
H          H       0.58077   0.30921   0.88380
H          H       0.69079   0.27156   0.61620
H          H       0.72844   0.41923   0.61620
H          H       0.58077   0.30921   0.61620
H          H       0.30921   0.72844   0.61620
H          H       0.27156   0.58077   0.61620
H          H       0.41923   0.69079   0.61620
H          H       0.49024   0.59988   0.89930
H          H       0.40012   0.89036   0.89930
H          H       0.10964   0.50976   0.89930
H          H       0.50976   0.40012   0.89930
H          H       0.59988   0.10964   0.89930
H          H       0.89036   0.49024   0.89930
H          H       0.50976   0.40012   0.60069
H          H       0.59988   0.10964   0.60069
H          H       0.89036   0.49024   0.60069
H          H       0.49024   0.59988   0.60069
H          H       0.40012   0.89036   0.60069
H          H       0.10964   0.50976   0.60069
H          H       0.52199   0.94245   0.60693
H          H       0.05755   0.57954   0.60693
H          H       0.42046   0.47801   0.60693
H          H       0.47801   0.05755   0.60693
H          H       0.94245   0.42046   0.60693
H          H       0.57954   0.52199   0.60693
H          H       0.47801   0.05755   0.89307
H          H       0.94245   0.42046   0.89307
H          H       0.57954   0.52199   0.89307
H          H       0.52199   0.94245   0.89307
H          H       0.05755   0.57954   0.89307
H          H       0.42046   0.47801   0.89307
O          O       0.58752   0.02869   0.64814
O          O       0.97131   0.55883   0.64814
O          O       0.44117   0.41248   0.64814
O          O       0.41248   0.97131   0.64814
O          O       0.02869   0.44117   0.64814
O          O       0.55883   0.58752   0.64814
O          O       0.41248   0.97131   0.85186
O          O       0.02869   0.44117   0.85186
O          O       0.55883   0.58752   0.85186
O          O       0.58752   0.02869   0.85186
O          O       0.97131   0.55883   0.85186
O          O       0.44117   0.41248   0.85186
H          H       0.43056   0.37077   0.93858
H          H       0.62923   0.05979   0.93858
H          H       0.94021   0.56944   0.93858
H          H       0.56944   0.62923   0.93858
H          H       0.37077   0.94021   0.93858
H          H       0.05979   0.43056   0.93858
H          H       0.56944   0.62923   0.56142
H          H       0.37077   0.94021   0.56142
H          H       0.05979   0.43056   0.56142
H          H       0.43056   0.37077   0.56142
H          H       0.62923   0.05979   0.56142
H          H       0.94021   0.56944   0.56142
H          H       0.39303   0.39627   0.95240
H          H       0.60373   0.99676   0.95240
H          H       0.00324   0.60697   0.95240
H          H       0.60697   0.60373   0.95240
H          H       0.39627   0.00324   0.95240
H          H       0.99676   0.39303   0.95240
H          H       0.60697   0.60373   0.54760
H          H       0.39627   0.00324   0.54760
H          H       0.99676   0.39303   0.54760
H          H       0.39303   0.39627   0.54760
H          H       0.60373   0.99676   0.54760
H          H       0.00324   0.60697   0.54760
H          H       0.38281   0.34798   0.58571
H          H       0.65202   0.03483   0.58571
H          H       0.96517   0.61719   0.58571
H          H       0.61719   0.65202   0.58571
H          H       0.34798   0.96517   0.58571
H          H       0.03483   0.38281   0.58571
H          H       0.61719   0.65202   0.91429
H          H       0.34798   0.96517   0.91429
H          H       0.03483   0.38281   0.91429
H          H       0.38281   0.34798   0.91429
H          H       0.65202   0.03483   0.91429
H          H       0.96517   0.61719   0.91429
