data_crystal

_cell_length_a    31.99660
_cell_length_b    31.99660
_cell_length_c    7.39380
_cell_angle_alpha 90.00000
_cell_angle_beta  90.00000
_cell_angle_gamma 120.00000

_space_group_name_Hall 'P 1'
_space_group_name_H-M_alt 'P 1'

loop_
_symmetry_equiv_pos_as_xyz
 'x,y,z'

loop_
_atom_site_label
_atom_site_type_symbol
_atom_site_fract_x
_atom_site_fract_y
_atom_site_fract_z
C          C       0.61449   0.31656   0.00000
C          C       0.68344   0.29793   0.00000
C          C       0.70207   0.38551   0.00000
C          C       0.38551   0.68344   0.00000
C          C       0.31656   0.70207   0.00000
C          C       0.29793   0.61449   0.00000
C          C       0.63096   0.28079   0.00000
C          C       0.71921   0.35017   0.00000
C          C       0.64983   0.36904   0.00000
C          C       0.36904   0.71921   0.00000
C          C       0.28079   0.64983   0.00000
C          C       0.35017   0.63096   0.00000
C          C       0.63295   0.40709   0.00000
C          C       0.59291   0.22586   0.00000
C          C       0.77414   0.36705   0.00000
C          C       0.36705   0.59291   0.00000
C          C       0.40709   0.77414   0.00000
C          C       0.22586   0.63295   0.00000
N          N       0.58471   0.39276   0.00000
N          N       0.60724   0.19195   0.00000
N          N       0.80805   0.41529   0.00000
N          N       0.41529   0.60724   0.00000
N          N       0.39276   0.80805   0.00000
N          N       0.19195   0.58471   0.00000
C          C       0.56234   0.42489   0.00000
C          C       0.57511   0.13745   0.00000
C          C       0.86255   0.43766   0.00000
C          C       0.43766   0.57511   0.00000
C          C       0.42489   0.86255   0.00000
C          C       0.13745   0.56234   0.00000
C          C       0.59109   0.47830   0.00000
C          C       0.52170   0.11279   0.00000
C          C       0.88721   0.40891   0.00000
C          C       0.40891   0.52170   0.00000
C          C       0.47830   0.88721   0.00000
C          C       0.11279   0.59109   0.00000
C          C       0.56695   0.50739   0.00000
C          C       0.49261   0.05956   0.00000
C          C       0.94044   0.43305   0.00000
C          C       0.43305   0.49261   0.00000
C          C       0.50739   0.94044   0.00000
C          C       0.05956   0.56695   0.00000
C          C       0.51313   0.48424   0.00000
C          C       0.51576   0.02889   0.00000
C          C       0.97111   0.48687   0.00000
C          C       0.48687   0.51576   0.00000
C          C       0.48424   0.97111   0.00000
C          C       0.02889   0.51313   0.00000
C          C       0.48501   0.43028   0.00000
C          C       0.56972   0.05473   0.00000
C          C       0.94527   0.51499   0.00000
C          C       0.51499   0.56972   0.00000
C          C       0.43028   0.94527   0.00000
C          C       0.05473   0.48501   0.00000
C          C       0.50940   0.40147   0.00000
C          C       0.59853   0.10793   0.00000
C          C       0.89207   0.49060   0.00000
C          C       0.49060   0.59853   0.00000
C          C       0.40147   0.89207   0.00000
C          C       0.10793   0.50940   0.00000
H          H       0.57407   0.30358   0.00000
H          H       0.69642   0.27049   0.00000
H          H       0.72951   0.42593   0.00000
H          H       0.42593   0.69642   0.00000
H          H       0.30358   0.72951   0.00000
H          H       0.27049   0.57407   0.00000
H          H       0.66179   0.44692   0.00000
H          H       0.55308   0.21487   0.00000
H          H       0.78513   0.33821   0.00000
H          H       0.33821   0.55308   0.00000
H          H       0.44692   0.78513   0.00000
H          H       0.21487   0.66179   0.00000
H          H       0.63215   0.49822   0.00000
H          H       0.50178   0.13393   0.00000
H          H       0.86607   0.36785   0.00000
H          H       0.36785   0.50178   0.00000
H          H       0.49822   0.86607   0.00000
H          H       0.13393   0.63215   0.00000
H          H       0.59171   0.54802   0.00000
H          H       0.45198   0.04369   0.00000
H          H       0.95631   0.40829   0.00000
H          H       0.40829   0.45198   0.00000
H          H       0.54802   0.95631   0.00000
H          H       0.04369   0.59171   0.00000
H          H       0.44407   0.40898   0.00000
H          H       0.59102   0.03509   0.00000
H          H       0.96491   0.55593   0.00000
H          H       0.55593   0.59102   0.00000
H          H       0.40898   0.96491   0.00000
H          H       0.03509   0.44407   0.00000
H          H       0.48692   0.36030   0.00000
H          H       0.63970   0.12662   0.00000
H          H       0.87338   0.51308   0.00000
H          H       0.51308   0.63970   0.00000
H          H       0.36030   0.87338   0.00000
H          H       0.12662   0.48692   0.00000
C          C       0.61449   0.31656   0.50000
C          C       0.68344   0.29793   0.50000
C          C       0.70207   0.38551   0.50000
C          C       0.38551   0.68344   0.50000
C          C       0.31656   0.70207   0.50000
C          C       0.29793   0.61449   0.50000
C          C       0.63096   0.28079   0.50000
C          C       0.71921   0.35017   0.50000
C          C       0.64983   0.36904   0.50000
C          C       0.36904   0.71921   0.50000
C          C       0.28079   0.64983   0.50000
C          C       0.35017   0.63096   0.50000
C          C       0.63295   0.40709   0.50000
C          C       0.59291   0.22586   0.50000
C          C       0.77414   0.36705   0.50000
C          C       0.36705   0.59291   0.50000
C          C       0.40709   0.77414   0.50000
C          C       0.22586   0.63295   0.50000
N          N       0.58471   0.39276   0.50000
N          N       0.60724   0.19195   0.50000
N          N       0.80805   0.41529   0.50000
N          N       0.41529   0.60724   0.50000
N          N       0.39276   0.80805   0.50000
N          N       0.19195   0.58471   0.50000
C          C       0.56234   0.42489   0.50000
C          C       0.57511   0.13745   0.50000
C          C       0.86255   0.43766   0.50000
C          C       0.43766   0.57511   0.50000
C          C       0.42489   0.86255   0.50000
C          C       0.13745   0.56234   0.50000
C          C       0.59109   0.47830   0.50000
C          C       0.52170   0.11279   0.50000
C          C       0.88721   0.40891   0.50000
C          C       0.40891   0.52170   0.50000
C          C       0.47830   0.88721   0.50000
C          C       0.11279   0.59109   0.50000
C          C       0.56695   0.50739   0.50000
C          C       0.49261   0.05956   0.50000
C          C       0.94044   0.43305   0.50000
C          C       0.43305   0.49261   0.50000
C          C       0.50739   0.94044   0.50000
C          C       0.05956   0.56695   0.50000
C          C       0.51313   0.48424   0.50000
C          C       0.51576   0.02889   0.50000
C          C       0.97111   0.48687   0.50000
C          C       0.48687   0.51576   0.50000
C          C       0.48424   0.97111   0.50000
C          C       0.02889   0.51313   0.50000
C          C       0.48501   0.43028   0.50000
C          C       0.56972   0.05473   0.50000
C          C       0.94527   0.51499   0.50000
C          C       0.51499   0.56972   0.50000
C          C       0.43028   0.94527   0.50000
C          C       0.05473   0.48501   0.50000
C          C       0.50940   0.40147   0.50000
C          C       0.59853   0.10793   0.50000
C          C       0.89207   0.49060   0.50000
C          C       0.49060   0.59853   0.50000
C          C       0.40147   0.89207   0.50000
C          C       0.10793   0.50940   0.50000
H          H       0.57407   0.30358   0.50000
H          H       0.69642   0.27049   0.50000
H          H       0.72951   0.42593   0.50000
H          H       0.42593   0.69642   0.50000
H          H       0.30358   0.72951   0.50000
H          H       0.27049   0.57407   0.50000
H          H       0.66179   0.44692   0.50000
H          H       0.55308   0.21487   0.50000
H          H       0.78513   0.33821   0.50000
H          H       0.33821   0.55308   0.50000
H          H       0.44692   0.78513   0.50000
H          H       0.21487   0.66179   0.50000
H          H       0.63215   0.49822   0.50000
H          H       0.50178   0.13393   0.50000
H          H       0.86607   0.36785   0.50000
H          H       0.36785   0.50178   0.50000
H          H       0.49822   0.86607   0.50000
H          H       0.13393   0.63215   0.50000
H          H       0.59171   0.54802   0.50000
H          H       0.45198   0.04369   0.50000
H          H       0.95631   0.40829   0.50000
H          H       0.40829   0.45198   0.50000
H          H       0.54802   0.95631   0.50000
H          H       0.04369   0.59171   0.50000
H          H       0.44407   0.40898   0.50000
H          H       0.59102   0.03509   0.50000
H          H       0.96491   0.55593   0.50000
H          H       0.55593   0.59102   0.50000
H          H       0.40898   0.96491   0.50000
H          H       0.03509   0.44407   0.50000
H          H       0.48692   0.36030   0.50000
H          H       0.63970   0.12662   0.50000
H          H       0.87338   0.51308   0.50000
H          H       0.51308   0.63970   0.50000
H          H       0.36030   0.87338   0.50000
H          H       0.12662   0.48692   0.50000
