data_crystal

_cell_length_a    24.55840
_cell_length_b    24.30680
_cell_length_c    7.58340
_cell_angle_alpha 90.00000
_cell_angle_beta  90.00000
_cell_angle_gamma 93.14050

_space_group_name_Hall 'P 1'
_space_group_name_H-M_alt 'P 1'

loop_
_symmetry_equiv_pos_as_xyz
 'x,y,z'

loop_
_atom_site_label
_atom_site_type_symbol
_atom_site_fract_x
_atom_site_fract_y
_atom_site_fract_z
C          C       0.41427   0.55103   0.06558
C          C       0.58573   0.44897   0.06558
C          C       0.42333   0.49539   0.03326
C          C       0.57667   0.50461   0.03326
C          C       0.47807   0.47950   0.03069
C          C       0.52193   0.52050   0.03069
C          C       0.51083   0.57717   0.03331
C          C       0.48917   0.42283   0.03331
C          C       0.45693   0.59091   0.06546
C          C       0.54307   0.40909   0.06546
C          C       0.37988   0.45485   0.01078
C          C       0.62012   0.54515   0.01078
C          C       0.39267   0.39969   0.49068
C          C       0.60733   0.60031   0.49068
C          C       0.44578   0.38222   0.01108
C          C       0.55422   0.61778   0.01108
C          C       0.32063   0.46703   0.00600
C          C       0.67937   0.53297   0.00600
C          C       0.45290   0.32131   0.00679
C          C       0.54710   0.67869   0.00679
C          C       0.30184   0.51263   0.41455
C          C       0.69816   0.48737   0.41455
C          C       0.24653   0.52326   0.41318
C          C       0.75347   0.47674   0.41318
C          C       0.20813   0.48678   0.49326
C          C       0.79187   0.51322   0.49326
C          C       0.22613   0.44009   0.08051
C          C       0.77387   0.55991   0.08051
C          C       0.28169   0.43071   0.08804
C          C       0.71831   0.56929   0.08804
C          C       0.58590   0.71508   0.08895
C          C       0.41410   0.28492   0.08895
C          C       0.58102   0.77201   0.08193
C          C       0.41898   0.22799   0.08193
C          C       0.53666   0.79418   0.49729
C          C       0.46334   0.20582   0.49729
C          C       0.49805   0.75828   0.41275
C          C       0.50195   0.24172   0.41275
C          C       0.50406   0.70145   0.41448
C          C       0.49594   0.29855   0.41448
N          N       0.53323   0.85304   0.49878
N          N       0.46677   0.14696   0.49878
N          N       0.84827   0.50051   0.48819
N          N       0.15173   0.49949   0.48819
C          C       0.49237   0.88073   0.44670
C          C       0.50763   0.11927   0.44670
C          C       0.49545   0.94167   0.45660
C          C       0.50455   0.05833   0.45660
C          C       0.88957   0.53575   0.00722
C          C       0.11043   0.46425   0.00722
C          C       0.94607   0.51749   0.00432
C          C       0.05393   0.48251   0.00432
C          C       0.54681   0.97017   0.45758
C          C       0.45319   0.02983   0.45758
C          C       0.55194   0.02772   0.46048
C          C       0.44806   0.97228   0.46048
C          C       0.95604   0.46110   0.00379
C          C       0.04396   0.53890   0.00379
C          C       0.00950   0.44342   0.00432
C          C       0.99050   0.55658   0.00432
H          H       0.37428   0.56504   0.09204
H          H       0.62572   0.43496   0.09204
H          H       0.44645   0.63253   0.09154
H          H       0.55355   0.36747   0.09154
H          H       0.36015   0.36927   0.46026
H          H       0.63985   0.63073   0.46026
H          H       0.32967   0.53998   0.34218
H          H       0.67033   0.46002   0.34218
H          H       0.23328   0.55919   0.34431
H          H       0.76672   0.44081   0.34431
H          H       0.19789   0.41196   0.14932
H          H       0.80211   0.58804   0.14932
H          H       0.29430   0.39548   0.16199
H          H       0.70570   0.60452   0.16199
H          H       0.61968   0.69951   0.16195
H          H       0.38032   0.30049   0.16195
H          H       0.61126   0.79900   0.14710
H          H       0.38874   0.20100   0.14710
H          H       0.46425   0.77342   0.33966
H          H       0.53575   0.22658   0.33966
H          H       0.47528   0.67549   0.34093
H          H       0.52472   0.32451   0.34093
H          H       0.45585   0.85971   0.39630
H          H       0.54415   0.14029   0.39630
H          H       0.88313   0.57920   0.02127
H          H       0.11687   0.42080   0.02127
H          H       0.58367   0.94764   0.45635
H          H       0.41633   0.05236   0.45635
H          H       0.92223   0.43057   0.00436
H          H       0.07777   0.56943   0.00436
O          O       0.60475   0.05227   0.47085
O          O       0.39525   0.94773   0.47085
O          O       0.98116   0.61285   0.00462
O          O       0.01884   0.38715   0.00462
H          H       0.60709   0.09232   0.00696
H          H       0.39291   0.90768   0.00696
H          H       0.01572   0.63763   0.00449
H          H       0.98428   0.36237   0.00449
C          C       0.41427   0.55103   0.56558
C          C       0.58573   0.44897   0.56558
C          C       0.42333   0.49539   0.53326
C          C       0.57667   0.50461   0.53326
C          C       0.47807   0.47950   0.53069
C          C       0.52193   0.52050   0.53069
C          C       0.51083   0.57717   0.53331
C          C       0.48917   0.42283   0.53331
C          C       0.45693   0.59091   0.56546
C          C       0.54307   0.40909   0.56546
C          C       0.37988   0.45485   0.51079
C          C       0.62012   0.54515   0.51079
C          C       0.39267   0.39969   0.99069
C          C       0.60733   0.60031   0.99069
C          C       0.44578   0.38222   0.51108
C          C       0.55422   0.61778   0.51108
C          C       0.32063   0.46703   0.50599
C          C       0.67937   0.53297   0.50599
C          C       0.45290   0.32131   0.50679
C          C       0.54710   0.67869   0.50679
C          C       0.30184   0.51263   0.91455
C          C       0.69816   0.48737   0.91455
C          C       0.24653   0.52326   0.91318
C          C       0.75347   0.47674   0.91318
C          C       0.20813   0.48678   0.99326
C          C       0.79187   0.51322   0.99326
C          C       0.22613   0.44009   0.58051
C          C       0.77387   0.55991   0.58051
C          C       0.28169   0.43071   0.58803
C          C       0.71831   0.56929   0.58803
C          C       0.58590   0.71508   0.58895
C          C       0.41410   0.28492   0.58895
C          C       0.58102   0.77201   0.58193
C          C       0.41898   0.22799   0.58193
C          C       0.53666   0.79418   0.99729
C          C       0.46334   0.20582   0.99729
C          C       0.49805   0.75828   0.91275
C          C       0.50195   0.24172   0.91275
C          C       0.50406   0.70145   0.91448
C          C       0.49594   0.29855   0.91448
N          N       0.53323   0.85304   0.99878
N          N       0.46677   0.14696   0.99878
N          N       0.84827   0.50051   0.98819
N          N       0.15173   0.49949   0.98819
C          C       0.49237   0.88073   0.94670
C          C       0.50763   0.11927   0.94670
C          C       0.49545   0.94167   0.95660
C          C       0.50455   0.05833   0.95660
C          C       0.88957   0.53575   0.50723
C          C       0.11043   0.46425   0.50723
C          C       0.94607   0.51749   0.50433
C          C       0.05393   0.48251   0.50433
C          C       0.54681   0.97017   0.95758
C          C       0.45319   0.02983   0.95758
C          C       0.55194   0.02772   0.96048
C          C       0.44806   0.97228   0.96048
C          C       0.95604   0.46110   0.50379
C          C       0.04396   0.53890   0.50379
C          C       0.00950   0.44342   0.50432
C          C       0.99050   0.55658   0.50432
H          H       0.37428   0.56504   0.59204
H          H       0.62572   0.43496   0.59204
H          H       0.44645   0.63253   0.59154
H          H       0.55355   0.36747   0.59154
H          H       0.36015   0.36927   0.96026
H          H       0.63985   0.63073   0.96026
H          H       0.32967   0.53998   0.84219
H          H       0.67033   0.46002   0.84219
H          H       0.23328   0.55919   0.84431
H          H       0.76672   0.44081   0.84431
H          H       0.19789   0.41196   0.64931
H          H       0.80211   0.58804   0.64931
H          H       0.29430   0.39548   0.66199
H          H       0.70570   0.60452   0.66199
H          H       0.61968   0.69951   0.66195
H          H       0.38032   0.30049   0.66195
H          H       0.61126   0.79900   0.64710
H          H       0.38874   0.20100   0.64710
H          H       0.46425   0.77342   0.83966
H          H       0.53575   0.22658   0.83966
H          H       0.47528   0.67549   0.84092
H          H       0.52472   0.32451   0.84092
H          H       0.45585   0.85971   0.89630
H          H       0.54415   0.14029   0.89630
H          H       0.88313   0.57920   0.52128
H          H       0.11687   0.42080   0.52128
H          H       0.58367   0.94764   0.95635
H          H       0.41633   0.05236   0.95635
H          H       0.92223   0.43057   0.50435
H          H       0.07777   0.56943   0.50435
O          O       0.60475   0.05227   0.97084
O          O       0.39525   0.94773   0.97084
O          O       0.98116   0.61285   0.50462
O          O       0.01884   0.38715   0.50462
H          H       0.60709   0.09232   0.50696
H          H       0.39291   0.90768   0.50696
H          H       0.01572   0.63763   0.50450
H          H       0.98428   0.36237   0.50450
