data_crystal

_cell_length_a    29.64120
_cell_length_b    29.64120
_cell_length_c    7.06160
_cell_angle_alpha 90.00000
_cell_angle_beta  90.00000
_cell_angle_gamma 120.00000

_space_group_name_Hall 'P 1'
_space_group_name_H-M_alt 'P 1'

loop_
_symmetry_equiv_pos_as_xyz
 'x,y,z'

loop_
_atom_site_label
_atom_site_type_symbol
_atom_site_fract_x
_atom_site_fract_y
_atom_site_fract_z
C          C       0.49902   0.05848   0.00000
C          C       0.94152   0.44054   0.00000
C          C       0.55946   0.50098   0.00000
C          C       0.50098   0.94152   0.00000
C          C       0.05848   0.55946   0.00000
C          C       0.44054   0.49902   0.00000
N          N       0.51692   0.02682   0.00000
N          N       0.97318   0.49010   0.00000
N          N       0.50990   0.48308   0.00000
N          N       0.48308   0.97318   0.00000
N          N       0.02682   0.50990   0.00000
N          N       0.49010   0.51692   0.00000
C          C       0.46579   0.88485   0.00000
C          C       0.11515   0.58094   0.00000
C          C       0.41906   0.53421   0.00000
C          C       0.53421   0.11515   0.00000
C          C       0.88485   0.41906   0.00000
C          C       0.58094   0.46579   0.00000
C          C       0.41170   0.86326   0.00000
C          C       0.13674   0.54844   0.00000
C          C       0.45156   0.58830   0.00000
C          C       0.58830   0.13674   0.00000
C          C       0.86326   0.45156   0.00000
C          C       0.54844   0.41170   0.00000
C          C       0.37902   0.80947   0.00000
C          C       0.19053   0.56955   0.00000
C          C       0.43045   0.62098   0.00000
C          C       0.62098   0.19053   0.00000
C          C       0.80947   0.43045   0.00000
C          C       0.56955   0.37902   0.00000
C          C       0.39976   0.77615   0.00000
C          C       0.22385   0.62361   0.00000
C          C       0.37639   0.60024   0.00000
C          C       0.60024   0.22385   0.00000
C          C       0.77615   0.37639   0.00000
C          C       0.62361   0.39976   0.00000
C          C       0.45396   0.79797   0.00000
C          C       0.20203   0.65599   0.00000
C          C       0.34401   0.54604   0.00000
C          C       0.54604   0.20203   0.00000
C          C       0.79797   0.34401   0.00000
C          C       0.65599   0.45396   0.00000
C          C       0.48660   0.85176   0.00000
C          C       0.14824   0.63484   0.00000
C          C       0.36516   0.51340   0.00000
C          C       0.51340   0.14824   0.00000
C          C       0.85176   0.36516   0.00000
C          C       0.63484   0.48660   0.00000
C          C       0.36509   0.71902   0.00000
C          C       0.28098   0.64607   0.00000
C          C       0.35393   0.63491   0.00000
C          C       0.63491   0.28098   0.00000
C          C       0.71902   0.35393   0.00000
C          C       0.64607   0.36509   0.00000
N          N       0.31290   0.69819   0.00000
N          N       0.30181   0.61471   0.00000
N          N       0.38529   0.68710   0.00000
N          N       0.68710   0.30181   0.00000
N          N       0.69819   0.38529   0.00000
N          N       0.61471   0.31290   0.00000
H          H       0.45749   0.04313   0.00000
H          H       0.95687   0.41436   0.00000
H          H       0.58564   0.54251   0.00000
H          H       0.54251   0.95687   0.00000
H          H       0.04313   0.58564   0.00000
H          H       0.41436   0.45749   0.00000
H          H       0.39481   0.88811   0.00000
H          H       0.11189   0.50670   0.00000
H          H       0.49330   0.60519   0.00000
H          H       0.60519   0.11189   0.00000
H          H       0.88811   0.49330   0.00000
H          H       0.50670   0.39481   0.00000
H          H       0.33747   0.79385   0.00000
H          H       0.20615   0.54362   0.00000
H          H       0.45638   0.66253   0.00000
H          H       0.66253   0.20615   0.00000
H          H       0.79385   0.45638   0.00000
H          H       0.54362   0.33747   0.00000
H          H       0.47107   0.77333   0.00000
H          H       0.22667   0.69774   0.00000
H          H       0.30226   0.52893   0.00000
H          H       0.52893   0.22667   0.00000
H          H       0.77333   0.30226   0.00000
H          H       0.69774   0.47107   0.00000
H          H       0.52819   0.86758   0.00000
H          H       0.13242   0.66061   0.00000
H          H       0.33939   0.47181   0.00000
H          H       0.47181   0.13242   0.00000
H          H       0.86758   0.33939   0.00000
H          H       0.66061   0.52819   0.00000
C          C       0.49902   0.05848   0.50000
C          C       0.94152   0.44054   0.50000
C          C       0.55946   0.50098   0.50000
C          C       0.50098   0.94152   0.50000
C          C       0.05848   0.55946   0.50000
C          C       0.44054   0.49902   0.50000
N          N       0.51692   0.02682   0.50000
N          N       0.97318   0.49010   0.50000
N          N       0.50990   0.48308   0.50000
N          N       0.48308   0.97318   0.50000
N          N       0.02682   0.50990   0.50000
N          N       0.49010   0.51692   0.50000
C          C       0.46579   0.88485   0.50000
C          C       0.11515   0.58094   0.50000
C          C       0.41906   0.53421   0.50000
C          C       0.53421   0.11515   0.50000
C          C       0.88485   0.41906   0.50000
C          C       0.58094   0.46579   0.50000
C          C       0.41170   0.86326   0.50000
C          C       0.13674   0.54844   0.50000
C          C       0.45156   0.58830   0.50000
C          C       0.58830   0.13674   0.50000
C          C       0.86326   0.45156   0.50000
C          C       0.54844   0.41170   0.50000
C          C       0.37902   0.80947   0.50000
C          C       0.19053   0.56955   0.50000
C          C       0.43045   0.62098   0.50000
C          C       0.62098   0.19053   0.50000
C          C       0.80947   0.43045   0.50000
C          C       0.56955   0.37902   0.50000
C          C       0.39976   0.77615   0.50000
C          C       0.22385   0.62361   0.50000
C          C       0.37639   0.60024   0.50000
C          C       0.60024   0.22385   0.50000
C          C       0.77615   0.37639   0.50000
C          C       0.62361   0.39976   0.50000
C          C       0.45396   0.79797   0.50000
C          C       0.20203   0.65599   0.50000
C          C       0.34401   0.54604   0.50000
C          C       0.54604   0.20203   0.50000
C          C       0.79797   0.34401   0.50000
C          C       0.65599   0.45396   0.50000
C          C       0.48660   0.85176   0.50000
C          C       0.14824   0.63484   0.50000
C          C       0.36516   0.51340   0.50000
C          C       0.51340   0.14824   0.50000
C          C       0.85176   0.36516   0.50000
C          C       0.63484   0.48660   0.50000
C          C       0.36509   0.71902   0.50000
C          C       0.28098   0.64607   0.50000
C          C       0.35393   0.63491   0.50000
C          C       0.63491   0.28098   0.50000
C          C       0.71902   0.35393   0.50000
C          C       0.64607   0.36509   0.50000
N          N       0.31290   0.69819   0.50000
N          N       0.30181   0.61471   0.50000
N          N       0.38529   0.68710   0.50000
N          N       0.68710   0.30181   0.50000
N          N       0.69819   0.38529   0.50000
N          N       0.61471   0.31290   0.50000
H          H       0.45749   0.04313   0.50000
H          H       0.95687   0.41436   0.50000
H          H       0.58564   0.54251   0.50000
H          H       0.54251   0.95687   0.50000
H          H       0.04313   0.58564   0.50000
H          H       0.41436   0.45749   0.50000
H          H       0.39481   0.88811   0.50000
H          H       0.11189   0.50670   0.50000
H          H       0.49330   0.60519   0.50000
H          H       0.60519   0.11189   0.50000
H          H       0.88811   0.49330   0.50000
H          H       0.50670   0.39481   0.50000
H          H       0.33747   0.79385   0.50000
H          H       0.20615   0.54362   0.50000
H          H       0.45638   0.66253   0.50000
H          H       0.66253   0.20615   0.50000
H          H       0.79385   0.45638   0.50000
H          H       0.54362   0.33747   0.50000
H          H       0.47107   0.77333   0.50000
H          H       0.22667   0.69774   0.50000
H          H       0.30226   0.52893   0.50000
H          H       0.52893   0.22667   0.50000
H          H       0.77333   0.30226   0.50000
H          H       0.69774   0.47107   0.50000
H          H       0.52819   0.86758   0.50000
H          H       0.13242   0.66061   0.50000
H          H       0.33939   0.47181   0.50000
H          H       0.47181   0.13242   0.50000
H          H       0.86758   0.33939   0.50000
H          H       0.66061   0.52819   0.50000
