data_crystal

_cell_length_a    15.00360
_cell_length_b    8.56030
_cell_length_c    12.66380
_cell_angle_alpha 92.66880
_cell_angle_beta  90.00000
_cell_angle_gamma 90.00000

_space_group_name_Hall 'P 1'
_space_group_name_H-M_alt 'P 1'

loop_
_symmetry_equiv_pos_as_xyz
 'x,y,z'

loop_
_atom_site_label
_atom_site_type_symbol
_atom_site_fract_x
_atom_site_fract_y
_atom_site_fract_z
N          N       0.71033   0.11524   0.09201
N          N       0.71033   0.88476   0.40799
C          C       0.77107   0.15515   0.14399
C          C       0.77107   0.84485   0.35601
C          C       0.84934   0.91748   0.35958
C          C       0.84934   0.08252   0.14042
C          C       0.92016   0.84298   0.34091
C          C       0.92016   0.15702   0.15909
C          C       0.99680   0.90254   0.35308
C          C       0.99680   0.09746   0.14692
C          C       0.00225   0.04057   0.38104
C          C       0.00225   0.95943   0.11896
C          C       0.93164   0.11677   0.39772
C          C       0.93164   0.88323   0.10228
C          C       0.85536   0.05513   0.38804
C          C       0.85536   0.94487   0.11196
C          C       0.06893   0.18606   0.15588
C          C       0.06893   0.81394   0.34412
N          N       0.14125   0.85849   0.36389
N          N       0.14125   0.14151   0.13611
C          C       0.63781   0.80582   0.42169
C          C       0.63781   0.19418   0.07831
C          C       0.60041   0.81028   0.01107
C          C       0.60041   0.18972   0.48893
C          C       0.53991   0.71586   0.03450
C          C       0.53991   0.28414   0.46550
C          C       0.51436   0.61830   0.46741
C          C       0.51436   0.38170   0.03259
C          C       0.54738   0.62011   0.37553
C          C       0.54738   0.37989   0.12447
C          C       0.60865   0.71375   0.35232
C          C       0.60865   0.28625   0.14768
C          C       0.33533   0.39983   0.05611
C          C       0.33533   0.60017   0.44389
C          C       0.33872   0.74205   0.46042
C          C       0.33872   0.25795   0.03959
C          C       0.27876   0.82816   0.42263
C          C       0.27876   0.17184   0.07737
C          C       0.21229   0.77387   0.37399
C          C       0.21229   0.22613   0.12601
C          C       0.21330   0.63420   0.34937
C          C       0.21330   0.36580   0.15063
C          C       0.27462   0.54865   0.38351
C          C       0.27462   0.45135   0.11649
H          H       0.76942   0.25416   0.17905
H          H       0.76942   0.74584   0.32095
H          H       0.91561   0.73595   0.32076
H          H       0.91561   0.26405   0.17924
H          H       0.06099   0.08789   0.39177
H          H       0.06099   0.91211   0.10823
H          H       0.93610   0.22253   0.42062
H          H       0.93610   0.77747   0.07938
H          H       0.80114   0.11331   0.40437
H          H       0.80114   0.88669   0.09563
H          H       0.05814   0.29358   0.16878
H          H       0.05814   0.70642   0.33122
H          H       0.62255   0.88056   0.06477
H          H       0.62255   0.11944   0.43523
H          H       0.51571   0.71424   0.10633
H          H       0.51571   0.28576   0.39366
H          H       0.52848   0.54426   0.32414
H          H       0.52848   0.45574   0.17586
H          H       0.63513   0.71090   0.28179
H          H       0.63513   0.28910   0.21821
H          H       0.38384   0.78539   0.00730
H          H       0.38384   0.21461   0.49269
H          H       0.28025   0.93652   0.43663
H          H       0.28025   0.06348   0.06337
H          H       0.16548   0.58902   0.30767
H          H       0.16548   0.41098   0.19234
H          H       0.27156   0.43978   0.36840
H          H       0.27156   0.56022   0.13160
C          C       0.46600   0.50000   0.00000
C          C       0.38397   0.50000   0.00000
N          N       0.71033   0.11524   0.59201
N          N       0.71033   0.88476   0.90799
C          C       0.77107   0.15515   0.64399
C          C       0.77107   0.84485   0.85601
C          C       0.84934   0.91748   0.85958
C          C       0.84934   0.08252   0.64042
C          C       0.92016   0.84298   0.84091
C          C       0.92016   0.15702   0.65909
C          C       0.99680   0.90254   0.85308
C          C       0.99680   0.09746   0.64692
C          C       0.00225   0.04057   0.88104
C          C       0.00225   0.95943   0.61896
C          C       0.93164   0.11677   0.89772
C          C       0.93164   0.88323   0.60228
C          C       0.85536   0.05513   0.88804
C          C       0.85536   0.94487   0.61196
C          C       0.06893   0.18606   0.65588
C          C       0.06893   0.81394   0.84412
N          N       0.14125   0.85849   0.86389
N          N       0.14125   0.14151   0.63611
C          C       0.63781   0.80582   0.92169
C          C       0.63781   0.19418   0.57831
C          C       0.60041   0.81028   0.51107
C          C       0.60041   0.18972   0.98893
C          C       0.53991   0.71586   0.53450
C          C       0.53991   0.28414   0.96550
C          C       0.51436   0.61830   0.96741
C          C       0.51436   0.38170   0.53259
C          C       0.54738   0.62011   0.87553
C          C       0.54738   0.37989   0.62447
C          C       0.60865   0.71375   0.85232
C          C       0.60865   0.28625   0.64768
C          C       0.33533   0.39983   0.55612
C          C       0.33533   0.60017   0.94388
C          C       0.33872   0.74205   0.96041
C          C       0.33872   0.25795   0.53958
C          C       0.27876   0.82816   0.92264
C          C       0.27876   0.17184   0.57736
C          C       0.21229   0.77387   0.87399
C          C       0.21229   0.22613   0.62601
C          C       0.21330   0.63420   0.84937
C          C       0.21330   0.36580   0.65063
C          C       0.27462   0.54865   0.88351
C          C       0.27462   0.45135   0.61649
H          H       0.76942   0.25416   0.67905
H          H       0.76942   0.74584   0.82095
H          H       0.91561   0.73595   0.82076
H          H       0.91561   0.26405   0.67925
H          H       0.06099   0.08789   0.89177
H          H       0.06099   0.91211   0.60824
H          H       0.93610   0.22253   0.92062
H          H       0.93610   0.77747   0.57938
H          H       0.80114   0.11331   0.90437
H          H       0.80114   0.88669   0.59563
H          H       0.05814   0.29358   0.66878
H          H       0.05814   0.70642   0.83122
H          H       0.62255   0.88056   0.56478
H          H       0.62255   0.11944   0.93522
H          H       0.51571   0.71424   0.60634
H          H       0.51571   0.28576   0.89366
H          H       0.52848   0.54426   0.82414
H          H       0.52848   0.45574   0.67586
H          H       0.63513   0.71090   0.78179
H          H       0.63513   0.28910   0.71821
H          H       0.38384   0.78539   0.50731
H          H       0.38384   0.21461   0.99269
H          H       0.28025   0.93652   0.93664
H          H       0.28025   0.06348   0.56337
H          H       0.16548   0.58902   0.80766
H          H       0.16548   0.41098   0.69234
H          H       0.27156   0.43978   0.86840
H          H       0.27156   0.56022   0.63160
C          C       0.46600   0.50000   0.50000
C          C       0.38397   0.50000   0.50000
