data_crystal

_cell_length_a    44.93100
_cell_length_b    44.84450
_cell_length_c    7.01040
_cell_angle_alpha 90.27300
_cell_angle_beta  90.23460
_cell_angle_gamma 119.45600

_space_group_name_Hall 'P 1'
_space_group_name_H-M_alt 'P 1'

loop_
_symmetry_equiv_pos_as_xyz
 'x,y,z'

loop_
_atom_site_label
_atom_site_type_symbol
_atom_site_fract_x
_atom_site_fract_y
_atom_site_fract_z
H          H       0.32255   0.19415   0.00000
H          H       0.87160   0.67745   0.00000
H          H       0.79244   0.15439   0.00000
H          H       0.84561   0.63806   0.00000
H          H       0.80585   0.12840   0.00000
H          H       0.36194   0.20756   0.00000
C          C       0.68240   0.36847   0.00000
N          N       0.64741   0.34895   0.00000
C          C       0.59318   0.29276   0.00000
C          C       0.69134   0.26412   0.00000
C          C       0.71137   0.24804   0.00000
C          C       0.74749   0.26761   0.00000
C          C       0.76356   0.30396   0.00000
C          C       0.74359   0.32013   0.00000
C          C       0.48292   0.23360   0.00000
N          N       0.46282   0.20019   0.00000
C          C       0.81519   0.24008   0.00000
C          C       0.79451   0.20394   0.00000
C          C       0.80937   0.18377   0.00000
C          C       0.84432   0.19713   0.00000
C          C       0.86587   0.23340   0.00000
C          C       0.85118   0.25466   0.00000
C          C       0.85794   0.17265   0.00000
C          C       0.83481   0.13802   0.00000
C          C       0.84464   0.11372   0.00000
C          C       0.87976   0.12366   0.00000
C          C       0.90425   0.15906   0.00000
C          C       0.89355   0.18361   0.00000
N          N       0.89019   0.09708   0.00000
C          C       0.92273   0.10596   0.00000
C          C       0.93701   0.08334   0.00000
C          C       0.91654   0.04700   0.00000
C          C       0.93212   0.02649   0.00000
C          C       0.96837   0.04176   0.00000
C          C       0.98866   0.07806   0.00000
C          C       0.97302   0.09849   0.00000
C          C       0.98488   0.01996   0.00000
N          N       0.96518   0.98499   0.00000
H          H       0.66192   0.24758   0.00000
H          H       0.69826   0.21860   0.00000
H          H       0.79299   0.32038   0.00000
H          H       0.75676   0.34957   0.00000
H          H       0.76512   0.19136   0.00000
H          H       0.89519   0.24531   0.00000
H          H       0.86853   0.28399   0.00000
H          H       0.82424   0.08507   0.00000
H          H       0.93305   0.16793   0.00000
H          H       0.91358   0.21237   0.00000
H          H       0.88712   0.03415   0.00000
H          H       0.91541   0.99709   0.00000
H          H       0.01808   0.09104   0.00000
H          H       0.98968   0.12790   0.00000
C          C       0.63153   0.31394   0.00000
N          N       0.65105   0.29846   0.00000
C          C       0.70724   0.30042   0.00000
C          C       0.73588   0.42722   0.00000
C          C       0.75196   0.46333   0.00000
C          C       0.73239   0.47988   0.00000
C          C       0.69604   0.45960   0.00000
C          C       0.67987   0.42347   0.00000
C          C       0.76640   0.24932   0.00000
N          N       0.79981   0.26263   0.00000
C          C       0.75992   0.57511   0.00000
C          C       0.79606   0.59057   0.00000
C          C       0.81623   0.62560   0.00000
C          C       0.80287   0.64719   0.00000
C          C       0.76660   0.63247   0.00000
C          C       0.74534   0.59653   0.00000
C          C       0.82735   0.68529   0.00000
C          C       0.86198   0.69679   0.00000
C          C       0.88628   0.73093   0.00000
C          C       0.87634   0.75609   0.00000
C          C       0.84094   0.74519   0.00000
C          C       0.81639   0.70994   0.00000
N          N       0.90292   0.79312   0.00000
C          C       0.89404   0.81677   0.00000
C          C       0.91666   0.85366   0.00000
C          C       0.95300   0.86954   0.00000
C          C       0.97351   0.90563   0.00000
C          C       0.95824   0.92661   0.00000
C          C       0.92194   0.91060   0.00000
C          C       0.90151   0.87453   0.00000
C          C       0.98004   0.96492   0.00000
N          N       0.01501   0.98019   0.00000
H          H       0.75242   0.41434   0.00000
H          H       0.78140   0.47966   0.00000
H          H       0.67962   0.47262   0.00000
H          H       0.65043   0.40720   0.00000
H          H       0.80864   0.57376   0.00000
H          H       0.75469   0.64989   0.00000
H          H       0.71601   0.58454   0.00000
H          H       0.91493   0.73918   0.00000
H          H       0.83207   0.76512   0.00000
H          H       0.78763   0.70121   0.00000
H          H       0.96585   0.85297   0.00000
H          H       0.00291   0.91832   0.00000
H          H       0.90896   0.92705   0.00000
H          H       0.87210   0.86177   0.00000
C          C       0.68606   0.31760   0.00000
N          N       0.70154   0.35259   0.00000
C          C       0.69958   0.40682   0.00000
C          C       0.57278   0.30866   0.00000
C          C       0.53667   0.28863   0.00000
C          C       0.52012   0.25251   0.00000
C          C       0.54040   0.23644   0.00000
C          C       0.57653   0.25641   0.00000
C          C       0.75068   0.51708   0.00000
N          N       0.73737   0.53718   0.00000
C          C       0.42489   0.18481   0.00000
C          C       0.40943   0.20549   0.00000
C          C       0.37440   0.19063   0.00000
C          C       0.35281   0.15568   0.00000
C          C       0.36753   0.13413   0.00000
C          C       0.40347   0.14882   0.00000
C          C       0.31471   0.14206   0.00000
C          C       0.30321   0.16519   0.00000
C          C       0.26907   0.15536   0.00000
C          C       0.24391   0.12024   0.00000
C          C       0.25481   0.09575   0.00000
C          C       0.29006   0.10645   0.00000
N          N       0.20688   0.10981   0.00000
C          C       0.18323   0.07727   0.00000
C          C       0.14634   0.06299   0.00000
C          C       0.13046   0.08346   0.00000
C          C       0.09437   0.06788   0.00000
C          C       0.07339   0.03163   0.00000
C          C       0.08940   0.01134   0.00000
C          C       0.12547   0.02698   0.00000
C          C       0.03508   0.01512   0.00000
N          N       0.01981   0.03482   0.00000
H          H       0.58566   0.33808   0.00000
H          H       0.52034   0.30174   0.00000
H          H       0.52738   0.20701   0.00000
H          H       0.59280   0.24324   0.00000
H          H       0.42624   0.23488   0.00000
H          H       0.35011   0.10481   0.00000
H          H       0.41546   0.13147   0.00000
H          H       0.26082   0.17576   0.00000
H          H       0.23488   0.06695   0.00000
H          H       0.29879   0.08642   0.00000
H          H       0.14703   0.11288   0.00000
H          H       0.08168   0.08459   0.00000
H          H       0.07295   0.98192   0.00000
H          H       0.13823   0.01032   0.00000
H          H       0.46792   0.24809   0.00000
H          H       0.94347   0.13449   0.00000
H          H       0.75191   0.21983   0.00000
H          H       0.86551   0.80899   0.00000
H          H       0.78017   0.53208   0.00000
H          H       0.19101   0.05653   0.00000
H          H       0.32255   0.19415   0.50000
H          H       0.87160   0.67745   0.50000
H          H       0.79244   0.15439   0.50000
H          H       0.84561   0.63806   0.50000
H          H       0.80585   0.12840   0.50000
H          H       0.36194   0.20756   0.50000
C          C       0.68240   0.36847   0.50000
N          N       0.64741   0.34895   0.50000
C          C       0.59318   0.29276   0.50000
C          C       0.69134   0.26412   0.50000
C          C       0.71137   0.24804   0.50000
C          C       0.74749   0.26761   0.50000
C          C       0.76356   0.30396   0.50000
C          C       0.74359   0.32013   0.50000
C          C       0.48292   0.23360   0.50000
N          N       0.46282   0.20019   0.50000
C          C       0.81519   0.24008   0.50000
C          C       0.79451   0.20394   0.50000
C          C       0.80937   0.18377   0.50000
C          C       0.84432   0.19713   0.50000
C          C       0.86587   0.23340   0.50000
C          C       0.85118   0.25466   0.50000
C          C       0.85794   0.17265   0.50000
C          C       0.83481   0.13802   0.50000
C          C       0.84464   0.11372   0.50000
C          C       0.87976   0.12366   0.50000
C          C       0.90425   0.15906   0.50000
C          C       0.89355   0.18361   0.50000
N          N       0.89019   0.09708   0.50000
C          C       0.92273   0.10596   0.50000
C          C       0.93701   0.08334   0.50000
C          C       0.91654   0.04700   0.50000
C          C       0.93212   0.02649   0.50000
C          C       0.96837   0.04176   0.50000
C          C       0.98866   0.07806   0.50000
C          C       0.97302   0.09849   0.50000
C          C       0.98488   0.01996   0.50000
N          N       0.96518   0.98499   0.50000
H          H       0.66192   0.24758   0.50000
H          H       0.69826   0.21860   0.50000
H          H       0.79299   0.32038   0.50000
H          H       0.75676   0.34957   0.50000
H          H       0.76512   0.19136   0.50000
H          H       0.89519   0.24531   0.50000
H          H       0.86853   0.28399   0.50000
H          H       0.82424   0.08507   0.50000
H          H       0.93305   0.16793   0.50000
H          H       0.91358   0.21237   0.50000
H          H       0.88712   0.03415   0.50000
H          H       0.91541   0.99709   0.50000
H          H       0.01808   0.09104   0.50000
H          H       0.98968   0.12790   0.50000
C          C       0.63153   0.31394   0.50000
N          N       0.65105   0.29846   0.50000
C          C       0.70724   0.30042   0.50000
C          C       0.73588   0.42722   0.50000
C          C       0.75196   0.46333   0.50000
C          C       0.73239   0.47988   0.50000
C          C       0.69604   0.45960   0.50000
C          C       0.67987   0.42347   0.50000
C          C       0.76640   0.24932   0.50000
N          N       0.79981   0.26263   0.50000
C          C       0.75992   0.57511   0.50000
C          C       0.79606   0.59057   0.50000
C          C       0.81623   0.62560   0.50000
C          C       0.80287   0.64719   0.50000
C          C       0.76660   0.63247   0.50000
C          C       0.74534   0.59653   0.50000
C          C       0.82735   0.68529   0.50000
C          C       0.86198   0.69679   0.50000
C          C       0.88628   0.73093   0.50000
C          C       0.87634   0.75609   0.50000
C          C       0.84094   0.74519   0.50000
C          C       0.81639   0.70994   0.50000
N          N       0.90292   0.79312   0.50000
C          C       0.89404   0.81677   0.50000
C          C       0.91666   0.85366   0.50000
C          C       0.95300   0.86954   0.50000
C          C       0.97351   0.90563   0.50000
C          C       0.95824   0.92661   0.50000
C          C       0.92194   0.91060   0.50000
C          C       0.90151   0.87453   0.50000
C          C       0.98004   0.96492   0.50000
N          N       0.01501   0.98019   0.50000
H          H       0.75242   0.41434   0.50000
H          H       0.78140   0.47966   0.50000
H          H       0.67962   0.47262   0.50000
H          H       0.65043   0.40720   0.50000
H          H       0.80864   0.57376   0.50000
H          H       0.75469   0.64989   0.50000
H          H       0.71601   0.58454   0.50000
H          H       0.91493   0.73918   0.50000
H          H       0.83207   0.76512   0.50000
H          H       0.78763   0.70121   0.50000
H          H       0.96585   0.85297   0.50000
H          H       0.00291   0.91832   0.50000
H          H       0.90896   0.92705   0.50000
H          H       0.87210   0.86177   0.50000
C          C       0.68606   0.31760   0.50000
N          N       0.70154   0.35259   0.50000
C          C       0.69958   0.40682   0.50000
C          C       0.57278   0.30866   0.50000
C          C       0.53667   0.28863   0.50000
C          C       0.52012   0.25251   0.50000
C          C       0.54040   0.23644   0.50000
C          C       0.57653   0.25641   0.50000
C          C       0.75068   0.51708   0.50000
N          N       0.73737   0.53718   0.50000
C          C       0.42489   0.18481   0.50000
C          C       0.40943   0.20549   0.50000
C          C       0.37440   0.19063   0.50000
C          C       0.35281   0.15568   0.50000
C          C       0.36753   0.13413   0.50000
C          C       0.40347   0.14882   0.50000
C          C       0.31471   0.14206   0.50000
C          C       0.30321   0.16519   0.50000
C          C       0.26907   0.15536   0.50000
C          C       0.24391   0.12024   0.50000
C          C       0.25481   0.09575   0.50000
C          C       0.29006   0.10645   0.50000
N          N       0.20688   0.10981   0.50000
C          C       0.18323   0.07727   0.50000
C          C       0.14634   0.06299   0.50000
C          C       0.13046   0.08346   0.50000
C          C       0.09437   0.06788   0.50000
C          C       0.07339   0.03163   0.50000
C          C       0.08940   0.01134   0.50000
C          C       0.12547   0.02698   0.50000
C          C       0.03508   0.01512   0.50000
N          N       0.01981   0.03482   0.50000
H          H       0.58566   0.33808   0.50000
H          H       0.52034   0.30174   0.50000
H          H       0.52738   0.20701   0.50000
H          H       0.59280   0.24324   0.50000
H          H       0.42624   0.23488   0.50000
H          H       0.35011   0.10481   0.50000
H          H       0.41546   0.13147   0.50000
H          H       0.26082   0.17576   0.50000
H          H       0.23488   0.06695   0.50000
H          H       0.29879   0.08642   0.50000
H          H       0.14703   0.11288   0.50000
H          H       0.08168   0.08459   0.50000
H          H       0.07295   0.98192   0.50000
H          H       0.13823   0.01032   0.50000
H          H       0.46792   0.24809   0.50000
H          H       0.94347   0.13449   0.50000
H          H       0.75191   0.21983   0.50000
H          H       0.86551   0.80899   0.50000
H          H       0.78017   0.53208   0.50000
H          H       0.19101   0.05653   0.50000
