data_crystal

_cell_length_a    38.75360
_cell_length_b    38.75360
_cell_length_c    8.01680
_cell_angle_alpha 90.00000
_cell_angle_beta  90.00000
_cell_angle_gamma 120.00000

_space_group_name_Hall 'P 1'
_space_group_name_H-M_alt 'P 1'

loop_
_symmetry_equiv_pos_as_xyz
 'x,y,z'

loop_
_atom_site_label
_atom_site_type_symbol
_atom_site_fract_x
_atom_site_fract_y
_atom_site_fract_z
N          N       0.62500   0.31382   0.47115
N          N       0.68618   0.31118   0.47115
N          N       0.68882   0.37500   0.47115
N          N       0.37500   0.68618   0.47115
N          N       0.31382   0.68882   0.47115
N          N       0.31118   0.62500   0.47115
C          C       0.64435   0.29137   0.47104
C          C       0.70863   0.35298   0.47104
C          C       0.64702   0.35565   0.47104
C          C       0.35565   0.70863   0.47104
C          C       0.29137   0.64702   0.47104
C          C       0.35298   0.64435   0.47104
C          C       0.62556   0.38000   0.47442
C          C       0.62000   0.24556   0.47442
C          C       0.75444   0.37444   0.47442
C          C       0.37444   0.62000   0.47442
C          C       0.38000   0.75444   0.47442
C          C       0.24556   0.62556   0.47442
C          C       0.64817   0.42339   0.46639
C          C       0.57661   0.22478   0.46639
C          C       0.77522   0.35183   0.46639
C          C       0.35183   0.57661   0.46639
C          C       0.42339   0.77522   0.46639
C          C       0.22478   0.64817   0.46639
C          C       0.62788   0.44623   0.47319
C          C       0.55377   0.18165   0.47319
C          C       0.81835   0.37212   0.47319
C          C       0.37212   0.55377   0.47319
C          C       0.44623   0.81835   0.47319
C          C       0.18165   0.62788   0.47319
C          C       0.58499   0.42650   0.48918
C          C       0.57350   0.15849   0.48918
C          C       0.84151   0.41501   0.48918
C          C       0.41501   0.57350   0.48918
C          C       0.42650   0.84151   0.48918
C          C       0.15849   0.58499   0.48918
C          C       0.56208   0.38311   0.49457
C          C       0.61689   0.17897   0.49457
C          C       0.82103   0.43792   0.49457
C          C       0.43792   0.61689   0.49457
C          C       0.38311   0.82103   0.49457
C          C       0.17897   0.56208   0.49457
C          C       0.58226   0.36015   0.48745
C          C       0.63985   0.22211   0.48745
C          C       0.77789   0.41774   0.48745
C          C       0.41774   0.63985   0.48745
C          C       0.36015   0.77789   0.48745
C          C       0.22211   0.58226   0.48745
N          N       0.56649   0.45201   0.49814
N          N       0.54799   0.11448   0.49814
N          N       0.88552   0.43351   0.49814
N          N       0.43351   0.54799   0.49814
N          N       0.45201   0.88552   0.49814
N          N       0.11448   0.56649   0.49814
C          C       0.52838   0.44086   0.03479
C          C       0.55914   0.08752   0.03479
C          C       0.91248   0.47162   0.03479
C          C       0.47162   0.55914   0.03479
C          C       0.44086   0.91248   0.03479
C          C       0.08752   0.52838   0.03479
C          C       0.51458   0.47165   0.03706
C          C       0.52835   0.04293   0.03706
C          C       0.95707   0.48542   0.03706
C          C       0.48542   0.52835   0.03706
C          C       0.47165   0.95707   0.03706
C          C       0.04293   0.51458   0.03706
C          C       0.54262   0.51438   0.03869
C          C       0.48562   0.02824   0.03869
C          C       0.97176   0.45738   0.03869
C          C       0.45738   0.48562   0.03869
C          C       0.51438   0.97176   0.03869
C          C       0.02824   0.54262   0.03869
C          C       0.52782   0.54248   0.03889
C          C       0.45752   0.98534   0.03889
C          C       0.01466   0.47218   0.03889
C          C       0.47218   0.45752   0.03889
C          C       0.54248   0.01466   0.03889
C          C       0.98534   0.52782   0.03889
F          F       0.44597   0.41612   0.04014
F          F       0.58388   0.02985   0.04014
F          F       0.97015   0.55403   0.04014
F          F       0.55403   0.58388   0.04014
F          F       0.41612   0.97015   0.04014
F          F       0.02985   0.44597   0.04014
H          H       0.68152   0.43960   0.45521
H          H       0.56040   0.24192   0.45521
H          H       0.75808   0.31848   0.45521
H          H       0.31848   0.56040   0.45521
H          H       0.43960   0.75808   0.45521
H          H       0.24192   0.68152   0.45521
H          H       0.64529   0.47969   0.46749
H          H       0.52031   0.16560   0.46749
H          H       0.83440   0.35471   0.46749
H          H       0.35471   0.52031   0.46749
H          H       0.47969   0.83440   0.46749
H          H       0.16560   0.64529   0.46749
H          H       0.52881   0.36670   0.00311
H          H       0.63330   0.16211   0.00311
H          H       0.83789   0.47119   0.00311
H          H       0.47119   0.63330   0.00311
H          H       0.36670   0.83789   0.00311
H          H       0.16211   0.52881   0.00311
H          H       0.56403   0.32676   0.49301
H          H       0.67324   0.23727   0.49301
H          H       0.76273   0.43597   0.49301
H          H       0.43597   0.67324   0.49301
H          H       0.32676   0.76273   0.49301
H          H       0.23727   0.56403   0.49301
H          H       0.50586   0.40889   0.06285
H          H       0.59111   0.09697   0.06285
H          H       0.90303   0.49414   0.06285
H          H       0.49414   0.59111   0.06285
H          H       0.40889   0.90303   0.06285
H          H       0.09697   0.50586   0.06285
F          F       0.58379   0.52837   0.04378
F          F       0.47163   0.05542   0.04378
F          F       0.94458   0.41621   0.04378
F          F       0.41621   0.47163   0.04378
F          F       0.52837   0.94458   0.04378
F          F       0.05542   0.58379   0.04378
N          N       0.62500   0.31382   0.97115
N          N       0.68618   0.31118   0.97115
N          N       0.68882   0.37500   0.97115
N          N       0.37500   0.68618   0.97115
N          N       0.31382   0.68882   0.97115
N          N       0.31118   0.62500   0.97115
C          C       0.64435   0.29137   0.97104
C          C       0.70863   0.35298   0.97104
C          C       0.64702   0.35565   0.97104
C          C       0.35565   0.70863   0.97104
C          C       0.29137   0.64702   0.97104
C          C       0.35298   0.64435   0.97104
C          C       0.62556   0.38000   0.97442
C          C       0.62000   0.24556   0.97442
C          C       0.75444   0.37444   0.97442
C          C       0.37444   0.62000   0.97442
C          C       0.38000   0.75444   0.97442
C          C       0.24556   0.62556   0.97442
C          C       0.64817   0.42339   0.96639
C          C       0.57661   0.22478   0.96639
C          C       0.77522   0.35183   0.96639
C          C       0.35183   0.57661   0.96639
C          C       0.42339   0.77522   0.96639
C          C       0.22478   0.64817   0.96639
C          C       0.62788   0.44623   0.97318
C          C       0.55377   0.18165   0.97318
C          C       0.81835   0.37212   0.97318
C          C       0.37212   0.55377   0.97318
C          C       0.44623   0.81835   0.97318
C          C       0.18165   0.62788   0.97318
C          C       0.58499   0.42650   0.98918
C          C       0.57350   0.15849   0.98918
C          C       0.84151   0.41501   0.98918
C          C       0.41501   0.57350   0.98918
C          C       0.42650   0.84151   0.98918
C          C       0.15849   0.58499   0.98918
C          C       0.56208   0.38311   0.99457
C          C       0.61689   0.17897   0.99457
C          C       0.82103   0.43792   0.99457
C          C       0.43792   0.61689   0.99457
C          C       0.38311   0.82103   0.99457
C          C       0.17897   0.56208   0.99457
C          C       0.58226   0.36015   0.98745
C          C       0.63985   0.22211   0.98745
C          C       0.77789   0.41774   0.98745
C          C       0.41774   0.63985   0.98745
C          C       0.36015   0.77789   0.98745
C          C       0.22211   0.58226   0.98745
N          N       0.56649   0.45201   0.99814
N          N       0.54799   0.11448   0.99814
N          N       0.88552   0.43351   0.99814
N          N       0.43351   0.54799   0.99814
N          N       0.45201   0.88552   0.99814
N          N       0.11448   0.56649   0.99814
C          C       0.52838   0.44086   0.53478
C          C       0.55914   0.08752   0.53478
C          C       0.91248   0.47162   0.53478
C          C       0.47162   0.55914   0.53478
C          C       0.44086   0.91248   0.53478
C          C       0.08752   0.52838   0.53478
C          C       0.51458   0.47165   0.53706
C          C       0.52835   0.04293   0.53706
C          C       0.95707   0.48542   0.53706
C          C       0.48542   0.52835   0.53706
C          C       0.47165   0.95707   0.53706
C          C       0.04293   0.51458   0.53706
C          C       0.54262   0.51438   0.53869
C          C       0.48562   0.02824   0.53869
C          C       0.97176   0.45738   0.53869
C          C       0.45738   0.48562   0.53869
C          C       0.51438   0.97176   0.53869
C          C       0.02824   0.54262   0.53869
C          C       0.52782   0.54248   0.53889
C          C       0.45752   0.98534   0.53889
C          C       0.01466   0.47218   0.53889
C          C       0.47218   0.45752   0.53889
C          C       0.54248   0.01466   0.53889
C          C       0.98534   0.52782   0.53889
F          F       0.44597   0.41612   0.54014
F          F       0.58388   0.02985   0.54014
F          F       0.97015   0.55403   0.54014
F          F       0.55403   0.58388   0.54014
F          F       0.41612   0.97015   0.54014
F          F       0.02985   0.44597   0.54014
H          H       0.68152   0.43960   0.95522
H          H       0.56040   0.24192   0.95522
H          H       0.75808   0.31848   0.95522
H          H       0.31848   0.56040   0.95522
H          H       0.43960   0.75808   0.95522
H          H       0.24192   0.68152   0.95522
H          H       0.64529   0.47969   0.96749
H          H       0.52031   0.16560   0.96749
H          H       0.83440   0.35471   0.96749
H          H       0.35471   0.52031   0.96749
H          H       0.47969   0.83440   0.96749
H          H       0.16560   0.64529   0.96749
H          H       0.52881   0.36670   0.50310
H          H       0.63330   0.16211   0.50310
H          H       0.83789   0.47119   0.50310
H          H       0.47119   0.63330   0.50310
H          H       0.36670   0.83789   0.50310
H          H       0.16211   0.52881   0.50310
H          H       0.56403   0.32676   0.99301
H          H       0.67324   0.23727   0.99301
H          H       0.76273   0.43597   0.99301
H          H       0.43597   0.67324   0.99301
H          H       0.32676   0.76273   0.99301
H          H       0.23727   0.56403   0.99301
H          H       0.50586   0.40889   0.56285
H          H       0.59111   0.09697   0.56285
H          H       0.90303   0.49414   0.56285
H          H       0.49414   0.59111   0.56285
H          H       0.40889   0.90303   0.56285
H          H       0.09697   0.50586   0.56285
F          F       0.58379   0.52837   0.54378
F          F       0.47163   0.05542   0.54378
F          F       0.94458   0.41621   0.54378
F          F       0.41621   0.47163   0.54378
F          F       0.52837   0.94458   0.54378
F          F       0.05542   0.58379   0.54378
