data_crystal

_cell_length_a    40.36330
_cell_length_b    40.36330
_cell_length_c    8.33400
_cell_angle_alpha 90.00000
_cell_angle_beta  90.00000
_cell_angle_gamma 120.00000

_space_group_name_Hall 'P 1'
_space_group_name_H-M_alt 'P 1'

loop_
_symmetry_equiv_pos_as_xyz
 'x,y,z'

loop_
_atom_site_label
_atom_site_type_symbol
_atom_site_fract_x
_atom_site_fract_y
_atom_site_fract_z
C          C       0.62378   0.31282   0.45854
C          C       0.68718   0.31096   0.45854
C          C       0.68904   0.37622   0.45854
C          C       0.37622   0.68718   0.45854
C          C       0.31282   0.68904   0.45854
C          C       0.31096   0.62378   0.45854
C          C       0.64399   0.28986   0.45910
C          C       0.71014   0.35413   0.45910
C          C       0.64587   0.35601   0.45910
C          C       0.35601   0.71014   0.45910
C          C       0.28986   0.64587   0.45910
C          C       0.35413   0.64399   0.45910
C          C       0.62395   0.37998   0.46491
C          C       0.62002   0.24397   0.46491
C          C       0.75603   0.37605   0.46491
C          C       0.37605   0.62002   0.46491
C          C       0.37998   0.75603   0.46491
C          C       0.24397   0.62395   0.46491
C          C       0.64115   0.41918   0.38804
C          C       0.58082   0.22197   0.38804
C          C       0.77803   0.35885   0.38804
C          C       0.35885   0.58082   0.38804
C          C       0.41918   0.77803   0.38804
C          C       0.22197   0.64115   0.38804
C          C       0.62123   0.44210   0.39970
C          C       0.55790   0.17913   0.39970
C          C       0.82087   0.37877   0.39970
C          C       0.37877   0.55790   0.39970
C          C       0.44210   0.82087   0.39970
C          C       0.17913   0.62123   0.39970
C          C       0.58338   0.42620   0.48353
C          C       0.57380   0.15718   0.48353
C          C       0.84282   0.41662   0.48353
C          C       0.41662   0.57380   0.48353
C          C       0.42620   0.84282   0.48353
C          C       0.15718   0.58338   0.48353
C          C       0.56566   0.38696   0.05904
C          C       0.61304   0.17870   0.05904
C          C       0.82130   0.43434   0.05904
C          C       0.43434   0.61304   0.05904
C          C       0.38696   0.82130   0.05904
C          C       0.17870   0.56566   0.05904
C          C       0.58589   0.36429   0.05076
C          C       0.63571   0.22160   0.05076
C          C       0.77840   0.41411   0.05076
C          C       0.41411   0.63571   0.05076
C          C       0.36429   0.77840   0.05076
C          C       0.22160   0.58589   0.05076
N          N       0.56523   0.45179   0.49521
N          N       0.54821   0.11344   0.49521
N          N       0.88656   0.43477   0.49521
N          N       0.43477   0.54821   0.49521
N          N       0.45179   0.88656   0.49521
N          N       0.11344   0.56523   0.49521
C          C       0.52810   0.44105   0.04310
C          C       0.55895   0.08705   0.04310
C          C       0.91295   0.47190   0.04310
C          C       0.47190   0.55895   0.04310
C          C       0.44105   0.91295   0.04310
C          C       0.08705   0.52810   0.04310
C          C       0.51433   0.47164   0.04819
C          C       0.52836   0.04269   0.04819
C          C       0.95731   0.48567   0.04819
C          C       0.48567   0.52836   0.04819
C          C       0.47164   0.95731   0.04819
C          C       0.04269   0.51433   0.04819
C          C       0.54236   0.51411   0.05099
C          C       0.48589   0.02825   0.05099
C          C       0.97175   0.45764   0.05099
C          C       0.45764   0.48589   0.05099
C          C       0.51411   0.97175   0.05099
C          C       0.02825   0.54236   0.05099
C          C       0.52783   0.54226   0.05112
C          C       0.45774   0.98557   0.05112
C          C       0.01443   0.47217   0.05112
C          C       0.47217   0.45774   0.05112
C          C       0.54226   0.01443   0.05112
C          C       0.98557   0.52783   0.05112
F          F       0.44589   0.41657   0.05294
F          F       0.58343   0.02932   0.05294
F          F       0.97068   0.55411   0.05294
F          F       0.55411   0.58343   0.05294
F          F       0.41657   0.97068   0.05294
F          F       0.02932   0.44589   0.05294
H          H       0.59063   0.29698   0.45948
H          H       0.70302   0.29365   0.45948
H          H       0.70635   0.40937   0.45948
H          H       0.40937   0.70302   0.45948
H          H       0.29698   0.70635   0.45948
H          H       0.29365   0.59063   0.45948
H          H       0.66965   0.43203   0.31607
H          H       0.56797   0.23762   0.31607
H          H       0.76238   0.33035   0.31607
H          H       0.33035   0.56797   0.31607
H          H       0.43203   0.76238   0.31607
H          H       0.23762   0.66965   0.31607
H          H       0.63488   0.47242   0.34164
H          H       0.52758   0.16246   0.34164
H          H       0.83754   0.36512   0.34164
H          H       0.36512   0.52758   0.34164
H          H       0.47242   0.83754   0.34164
H          H       0.16246   0.63488   0.34164
H          H       0.53718   0.37424   0.13053
H          H       0.62576   0.16294   0.13053
H          H       0.83706   0.46282   0.13053
H          H       0.46282   0.62576   0.13053
H          H       0.37424   0.83706   0.13053
H          H       0.16294   0.53718   0.13053
H          H       0.57229   0.33511   0.11785
H          H       0.66489   0.23718   0.11785
H          H       0.76282   0.42771   0.11785
H          H       0.42771   0.66489   0.11785
H          H       0.33511   0.76282   0.11785
H          H       0.23718   0.57229   0.11785
H          H       0.50598   0.40923   0.07158
H          H       0.59077   0.09675   0.07158
H          H       0.90325   0.49402   0.07158
H          H       0.49402   0.59077   0.07158
H          H       0.40923   0.90325   0.07158
H          H       0.09675   0.50598   0.07158
F          F       0.58325   0.52768   0.05774
F          F       0.47232   0.05557   0.05774
F          F       0.94443   0.41675   0.05774
F          F       0.41675   0.47232   0.05774
F          F       0.52768   0.94443   0.05774
F          F       0.05557   0.58325   0.05774
C          C       0.62378   0.31282   0.95854
C          C       0.68718   0.31096   0.95854
C          C       0.68904   0.37622   0.95854
C          C       0.37622   0.68718   0.95854
C          C       0.31282   0.68904   0.95854
C          C       0.31096   0.62378   0.95854
C          C       0.64399   0.28986   0.95910
C          C       0.71014   0.35413   0.95910
C          C       0.64587   0.35601   0.95910
C          C       0.35601   0.71014   0.95910
C          C       0.28986   0.64587   0.95910
C          C       0.35413   0.64399   0.95910
C          C       0.62395   0.37998   0.96490
C          C       0.62002   0.24397   0.96490
C          C       0.75603   0.37605   0.96490
C          C       0.37605   0.62002   0.96490
C          C       0.37998   0.75603   0.96490
C          C       0.24397   0.62395   0.96490
C          C       0.64115   0.41918   0.88804
C          C       0.58082   0.22197   0.88804
C          C       0.77803   0.35885   0.88804
C          C       0.35885   0.58082   0.88804
C          C       0.41918   0.77803   0.88804
C          C       0.22197   0.64115   0.88804
C          C       0.62123   0.44210   0.89970
C          C       0.55790   0.17913   0.89970
C          C       0.82087   0.37877   0.89970
C          C       0.37877   0.55790   0.89970
C          C       0.44210   0.82087   0.89970
C          C       0.17913   0.62123   0.89970
C          C       0.58338   0.42620   0.98353
C          C       0.57380   0.15718   0.98353
C          C       0.84282   0.41662   0.98353
C          C       0.41662   0.57380   0.98353
C          C       0.42620   0.84282   0.98353
C          C       0.15718   0.58338   0.98353
C          C       0.56566   0.38696   0.55904
C          C       0.61304   0.17870   0.55904
C          C       0.82130   0.43434   0.55904
C          C       0.43434   0.61304   0.55904
C          C       0.38696   0.82130   0.55904
C          C       0.17870   0.56566   0.55904
C          C       0.58589   0.36429   0.55075
C          C       0.63571   0.22160   0.55075
C          C       0.77840   0.41411   0.55075
C          C       0.41411   0.63571   0.55075
C          C       0.36429   0.77840   0.55075
C          C       0.22160   0.58589   0.55075
N          N       0.56523   0.45179   0.99521
N          N       0.54821   0.11344   0.99521
N          N       0.88656   0.43477   0.99521
N          N       0.43477   0.54821   0.99521
N          N       0.45179   0.88656   0.99521
N          N       0.11344   0.56523   0.99521
C          C       0.52810   0.44105   0.54310
C          C       0.55895   0.08705   0.54310
C          C       0.91295   0.47190   0.54310
C          C       0.47190   0.55895   0.54310
C          C       0.44105   0.91295   0.54310
C          C       0.08705   0.52810   0.54310
C          C       0.51433   0.47164   0.54819
C          C       0.52836   0.04269   0.54819
C          C       0.95731   0.48567   0.54819
C          C       0.48567   0.52836   0.54819
C          C       0.47164   0.95731   0.54819
C          C       0.04269   0.51433   0.54819
C          C       0.54236   0.51411   0.55100
C          C       0.48589   0.02825   0.55100
C          C       0.97175   0.45764   0.55100
C          C       0.45764   0.48589   0.55100
C          C       0.51411   0.97175   0.55100
C          C       0.02825   0.54236   0.55100
C          C       0.52783   0.54226   0.55112
C          C       0.45774   0.98557   0.55112
C          C       0.01443   0.47217   0.55112
C          C       0.47217   0.45774   0.55112
C          C       0.54226   0.01443   0.55112
C          C       0.98557   0.52783   0.55112
F          F       0.44589   0.41657   0.55293
F          F       0.58343   0.02932   0.55293
F          F       0.97068   0.55411   0.55293
F          F       0.55411   0.58343   0.55293
F          F       0.41657   0.97068   0.55293
F          F       0.02932   0.44589   0.55293
H          H       0.59063   0.29698   0.95948
H          H       0.70302   0.29365   0.95948
H          H       0.70635   0.40937   0.95948
H          H       0.40937   0.70302   0.95948
H          H       0.29698   0.70635   0.95948
H          H       0.29365   0.59063   0.95948
H          H       0.66965   0.43203   0.81607
H          H       0.56797   0.23762   0.81607
H          H       0.76238   0.33035   0.81607
H          H       0.33035   0.56797   0.81607
H          H       0.43203   0.76238   0.81607
H          H       0.23762   0.66965   0.81607
H          H       0.63488   0.47242   0.84164
H          H       0.52758   0.16246   0.84164
H          H       0.83754   0.36512   0.84164
H          H       0.36512   0.52758   0.84164
H          H       0.47242   0.83754   0.84164
H          H       0.16246   0.63488   0.84164
H          H       0.53718   0.37424   0.63053
H          H       0.62576   0.16294   0.63053
H          H       0.83706   0.46282   0.63053
H          H       0.46282   0.62576   0.63053
H          H       0.37424   0.83706   0.63053
H          H       0.16294   0.53718   0.63053
H          H       0.57229   0.33511   0.61784
H          H       0.66489   0.23718   0.61784
H          H       0.76282   0.42771   0.61784
H          H       0.42771   0.66489   0.61784
H          H       0.33511   0.76282   0.61784
H          H       0.23718   0.57229   0.61784
H          H       0.50598   0.40923   0.57158
H          H       0.59077   0.09675   0.57158
H          H       0.90325   0.49402   0.57158
H          H       0.49402   0.59077   0.57158
H          H       0.40923   0.90325   0.57158
H          H       0.09675   0.50598   0.57158
F          F       0.58325   0.52768   0.55775
F          F       0.47232   0.05557   0.55775
F          F       0.94443   0.41675   0.55775
F          F       0.41675   0.47232   0.55775
F          F       0.52768   0.94443   0.55775
F          F       0.05557   0.58325   0.55775
