data_crystal

_cell_length_a    23.86490
_cell_length_b    3.81860
_cell_length_c    51.27400
_cell_angle_alpha 86.91490
_cell_angle_beta  88.48250
_cell_angle_gamma 89.98460

_space_group_name_Hall 'P 1'
_space_group_name_H-M_alt 'P 1'

loop_
_symmetry_equiv_pos_as_xyz
 'x,y,z'

loop_
_atom_site_label
_atom_site_type_symbol
_atom_site_fract_x
_atom_site_fract_y
_atom_site_fract_z
C          C       0.55501   0.13061   0.20707
C          C       0.44499   0.86939   0.29293
C          C       0.49866   0.05076   0.21185
C          C       0.50134   0.94924   0.28815
C          C       0.48074   0.02204   0.23929
C          C       0.51926   0.97796   0.26071
C          C       0.57657   0.03670   0.25490
C          C       0.42343   0.96330   0.24510
C          C       0.59277   0.12365   0.22793
C          C       0.40723   0.87635   0.27207
C          C       0.45975   0.01968   0.18982
C          C       0.54025   0.98032   0.31018
C          C       0.40366   0.99116   0.19671
C          C       0.59634   0.00884   0.30329
C          C       0.38359   0.02164   0.22348
C          C       0.61641   0.97836   0.27652
C          C       0.47437   0.02143   0.16155
C          C       0.52563   0.97857   0.33845
C          C       0.32517   0.02758   0.22755
C          C       0.67483   0.97242   0.27245
C          C       0.52175   0.83898   0.15087
C          C       0.47825   0.16102   0.34913
C          C       0.53166   0.82095   0.12315
C          C       0.46834   0.17905   0.37685
C          C       0.49556   0.97429   0.10401
C          C       0.50444   0.02571   0.39600
C          C       0.44914   0.15639   0.11406
C          C       0.55086   0.84361   0.38594
C          C       0.43892   0.18427   0.14167
C          C       0.56108   0.81573   0.35834
C          C       0.71047   0.15845   0.29254
C          C       0.28953   0.84155   0.20746
C          C       0.76716   0.13685   0.29054
C          C       0.23284   0.86315   0.20945
C          C       0.79294   0.96753   0.26844
C          C       0.20706   0.03247   0.23156
C          C       0.75900   0.81281   0.24836
C          C       0.24100   0.18719   0.25164
C          C       0.70212   0.82362   0.25022
C          C       0.29788   0.17638   0.24978
N          N       0.85111   0.95317   0.26736
N          N       0.14889   0.04683   0.23264
N          N       0.49388   0.93334   0.42418
N          N       0.50612   0.06666   0.07582
C          C       0.88118   0.96377   0.24535
C          C       0.11882   0.03623   0.25465
C          C       0.94122   0.94652   0.24765
C          C       0.05878   0.05348   0.25235
C          C       0.53142   0.94028   0.44324
C          C       0.46858   0.05972   0.05676
C          C       0.51527   0.94169   0.47194
C          C       0.48473   0.05831   0.02806
C          C       0.96727   0.84829   0.27196
C          C       0.03273   0.15171   0.22804
C          C       0.02435   0.83176   0.27466
C          C       0.97565   0.16824   0.22534
C          C       0.45994   0.94154   0.48015
C          C       0.54006   0.05846   0.01985
C          C       0.44409   0.95047   0.00741
C          C       0.55591   0.04953   0.49258
H          H       0.57014   0.18978   0.18638
H          H       0.42986   0.81022   0.31362
H          H       0.63628   0.17759   0.22292
H          H       0.36372   0.82241   0.27709
H          H       0.37343   0.95555   0.18005
H          H       0.62657   0.04445   0.31995
H          H       0.54943   0.69753   0.16492
H          H       0.45057   0.30247   0.33508
H          H       0.56806   0.67432   0.11589
H          H       0.43194   0.32568   0.38411
H          H       0.42047   0.28637   0.09978
H          H       0.57953   0.71363   0.40022
H          H       0.40230   0.33251   0.14849
H          H       0.59770   0.66749   0.35150
H          H       0.69222   0.29927   0.31003
H          H       0.30778   0.70073   0.18997
H          H       0.79271   0.26161   0.30646
H          H       0.20729   0.73839   0.19354
H          H       0.77794   0.67170   0.23109
H          H       0.22206   0.32830   0.26892
H          H       0.67727   0.68418   0.23481
H          H       0.32273   0.31582   0.26519
H          H       0.86335   0.99489   0.22471
H          H       0.13665   0.00511   0.27529
H          H       0.57614   0.95112   0.43877
H          H       0.42386   0.04888   0.06123
H          H       0.94114   0.78159   0.28963
H          H       0.05886   0.21841   0.21037
H          H       0.42747   0.93448   0.46437
H          H       0.57253   0.06552   0.03563
C          C       0.44547   0.12476   0.29306
C          C       0.55453   0.87524   0.20694
C          C       0.40776   0.13325   0.27218
C          C       0.59224   0.86675   0.22782
C          C       0.47809   0.82098   0.34917
C          C       0.52191   0.17902   0.15083
C          C       0.46831   0.80632   0.37692
C          C       0.53169   0.19368   0.12308
C          C       0.55151   0.13669   0.38570
C          C       0.44849   0.86331   0.11430
C          C       0.56171   0.16052   0.35807
C          C       0.43829   0.83948   0.14193
C          C       0.28932   0.19586   0.20810
C          C       0.71068   0.80414   0.29190
C          C       0.23265   0.18099   0.21065
C          C       0.76735   0.81901   0.28935
C          C       0.24141   0.84265   0.25207
C          C       0.75859   0.15735   0.24793
C          C       0.29824   0.84825   0.24973
C          C       0.70176   0.15175   0.25028
H          H       0.43057   0.17844   0.31388
H          H       0.56943   0.82156   0.18612
H          H       0.36452   0.19377   0.27731
H          H       0.63548   0.80623   0.22269
H          H       0.44999   0.68158   0.33519
H          H       0.55001   0.31842   0.16481
H          H       0.43164   0.66353   0.38431
H          H       0.56836   0.33647   0.11569
H          H       0.58046   0.26617   0.39986
H          H       0.41954   0.73383   0.10014
H          H       0.59860   0.30474   0.35108
H          H       0.40140   0.69526   0.14892
H          H       0.30731   0.34047   0.19074
H          H       0.69269   0.65953   0.30926
H          H       0.20693   0.31399   0.19521
H          H       0.79307   0.68601   0.30478
H          H       0.22315   0.69789   0.26932
H          H       0.77685   0.30211   0.23068
H          H       0.32323   0.70186   0.26467
H          H       0.67677   0.29814   0.23533
H          H       0.13512   0.81694   0.27426
H          H       0.86488   0.18306   0.22574
O          O       0.04976   0.73595   0.29920
O          O       0.95024   0.26405   0.20080
C          C       0.01656   0.57751   0.31990
C          C       0.98344   0.42249   0.18010
O          O       0.61206   0.95100   0.48505
O          O       0.38794   0.04900   0.01495
C          C       0.64836   0.13453   0.00305
C          C       0.35164   0.86547   0.49695
C          C       0.35220   0.13844   0.49672
C          C       0.64780   0.86156   0.00328
H          H       0.98960   0.37409   0.31111
H          H       0.01040   0.62591   0.18889
H          H       0.99076   0.77619   0.33009
H          H       0.00924   0.22381   0.16991
H          H       0.04378   0.45439   0.33521
H          H       0.95622   0.54561   0.16479
H          H       0.66452   0.95533   0.01879
H          H       0.33548   0.04467   0.48121
H          H       0.62699   0.35405   0.01316
H          H       0.37301   0.64595   0.48683
H          H       0.68325   0.24122   0.49117
H          H       0.31675   0.75878   0.00883
H          H       0.31734   0.24740   0.00851
H          H       0.68266   0.75260   0.49150
H          H       0.37372   0.35623   0.48646
H          H       0.62628   0.64377   0.01354
C          C       0.55501   0.13061   0.70707
C          C       0.44499   0.86939   0.79293
C          C       0.49866   0.05076   0.71185
C          C       0.50134   0.94924   0.78815
C          C       0.48074   0.02204   0.73929
C          C       0.51926   0.97796   0.76071
C          C       0.57657   0.03670   0.75491
C          C       0.42343   0.96330   0.74509
C          C       0.59277   0.12365   0.72794
C          C       0.40723   0.87635   0.77206
C          C       0.45975   0.01968   0.68981
C          C       0.54025   0.98032   0.81019
C          C       0.40366   0.99116   0.69671
C          C       0.59634   0.00884   0.80329
C          C       0.38359   0.02164   0.72348
C          C       0.61641   0.97836   0.77652
C          C       0.47437   0.02143   0.66155
C          C       0.52563   0.97857   0.83845
C          C       0.32517   0.02758   0.72755
C          C       0.67483   0.97242   0.77245
C          C       0.52175   0.83898   0.65087
C          C       0.47825   0.16102   0.84913
C          C       0.53166   0.82095   0.62314
C          C       0.46834   0.17905   0.87686
C          C       0.49556   0.97429   0.60401
C          C       0.50444   0.02571   0.89599
C          C       0.44914   0.15639   0.61406
C          C       0.55086   0.84361   0.88595
C          C       0.43892   0.18427   0.64167
C          C       0.56108   0.81573   0.85833
C          C       0.71047   0.15845   0.79254
C          C       0.28953   0.84155   0.70746
C          C       0.76716   0.13685   0.79054
C          C       0.23284   0.86315   0.70946
C          C       0.79294   0.96753   0.76844
C          C       0.20706   0.03247   0.73156
C          C       0.75900   0.81281   0.74836
C          C       0.24100   0.18719   0.75164
C          C       0.70212   0.82362   0.75021
C          C       0.29788   0.17638   0.74979
N          N       0.85111   0.95317   0.76736
N          N       0.14889   0.04683   0.73264
N          N       0.49388   0.93334   0.92418
N          N       0.50612   0.06666   0.57582
C          C       0.88118   0.96377   0.74535
C          C       0.11882   0.03623   0.75465
C          C       0.94122   0.94652   0.74765
C          C       0.05878   0.05348   0.75235
C          C       0.53142   0.94028   0.94324
C          C       0.46858   0.05972   0.55676
C          C       0.51527   0.94169   0.97194
C          C       0.48473   0.05831   0.52806
C          C       0.96727   0.84829   0.77196
C          C       0.03273   0.15171   0.72804
C          C       0.02435   0.83176   0.77466
C          C       0.97565   0.16824   0.72534
C          C       0.45994   0.94154   0.98015
C          C       0.54006   0.05846   0.51985
C          C       0.44409   0.95047   0.50742
C          C       0.55591   0.04953   0.99258
H          H       0.57014   0.18978   0.68638
H          H       0.42986   0.81022   0.81362
H          H       0.63628   0.17759   0.72291
H          H       0.36372   0.82241   0.77709
H          H       0.37343   0.95555   0.68005
H          H       0.62657   0.04445   0.81995
H          H       0.54943   0.69753   0.66492
H          H       0.45057   0.30247   0.83508
H          H       0.56806   0.67432   0.61589
H          H       0.43194   0.32568   0.88411
H          H       0.42047   0.28637   0.59978
H          H       0.57953   0.71363   0.90022
H          H       0.40230   0.33251   0.64849
H          H       0.59770   0.66749   0.85151
H          H       0.69222   0.29927   0.81003
H          H       0.30778   0.70073   0.68997
H          H       0.79271   0.26161   0.80646
H          H       0.20729   0.73839   0.69354
H          H       0.77794   0.67170   0.73108
H          H       0.22206   0.32830   0.76892
H          H       0.67727   0.68418   0.73481
H          H       0.32273   0.31582   0.76519
H          H       0.86335   0.99489   0.72471
H          H       0.13665   0.00511   0.77529
H          H       0.57614   0.95112   0.93877
H          H       0.42386   0.04888   0.56123
H          H       0.94114   0.78159   0.78963
H          H       0.05886   0.21841   0.71037
H          H       0.42747   0.93448   0.96437
H          H       0.57253   0.06552   0.53563
C          C       0.44547   0.12476   0.79306
C          C       0.55453   0.87524   0.70694
C          C       0.40776   0.13325   0.77218
C          C       0.59224   0.86675   0.72782
C          C       0.47809   0.82098   0.84916
C          C       0.52191   0.17902   0.65084
C          C       0.46831   0.80632   0.87692
C          C       0.53169   0.19368   0.62308
C          C       0.55151   0.13669   0.88570
C          C       0.44849   0.86331   0.61430
C          C       0.56171   0.16052   0.85807
C          C       0.43829   0.83948   0.64193
C          C       0.28932   0.19586   0.70810
C          C       0.71068   0.80414   0.79190
C          C       0.23265   0.18099   0.71065
C          C       0.76735   0.81901   0.78935
C          C       0.24141   0.84265   0.75207
C          C       0.75859   0.15735   0.74793
C          C       0.29824   0.84825   0.74972
C          C       0.70176   0.15175   0.75028
H          H       0.43057   0.17844   0.81388
H          H       0.56943   0.82156   0.68612
H          H       0.36452   0.19377   0.77731
H          H       0.63548   0.80623   0.72269
H          H       0.44999   0.68158   0.83519
H          H       0.55001   0.31842   0.66481
H          H       0.43164   0.66353   0.88430
H          H       0.56836   0.33647   0.61569
H          H       0.58046   0.26617   0.89986
H          H       0.41954   0.73383   0.60014
H          H       0.59860   0.30474   0.85108
H          H       0.40140   0.69526   0.64892
H          H       0.30731   0.34047   0.69074
H          H       0.69269   0.65953   0.80926
H          H       0.20693   0.31399   0.69522
H          H       0.79307   0.68601   0.80478
H          H       0.22315   0.69789   0.76932
H          H       0.77685   0.30211   0.73068
H          H       0.32323   0.70186   0.76467
H          H       0.67677   0.29814   0.73533
H          H       0.13512   0.81694   0.77426
H          H       0.86488   0.18306   0.72574
O          O       0.04976   0.73595   0.79920
O          O       0.95024   0.26405   0.70080
C          C       0.01656   0.57751   0.81990
C          C       0.98344   0.42249   0.68010
O          O       0.61206   0.95100   0.98504
O          O       0.38794   0.04900   0.51495
C          C       0.64836   0.13453   0.50305
C          C       0.35164   0.86547   0.99695
C          C       0.35220   0.13844   0.99672
C          C       0.64780   0.86156   0.50328
H          H       0.98960   0.37409   0.81112
H          H       0.01040   0.62591   0.68888
H          H       0.99076   0.77619   0.83009
H          H       0.00924   0.22381   0.66991
H          H       0.04378   0.45439   0.83521
H          H       0.95622   0.54561   0.66479
H          H       0.66452   0.95533   0.51879
H          H       0.33548   0.04467   0.98121
H          H       0.62699   0.35405   0.51316
H          H       0.37301   0.64595   0.98684
H          H       0.68325   0.24122   0.99117
H          H       0.31675   0.75878   0.50883
H          H       0.31734   0.24740   0.50850
H          H       0.68266   0.75260   0.99150
H          H       0.37372   0.35623   0.98646
H          H       0.62628   0.64377   0.51354
