data_crystal

_cell_length_a    19.65340
_cell_length_b    19.88590
_cell_length_c    12.50840
_cell_angle_alpha 90.00000
_cell_angle_beta  90.00000
_cell_angle_gamma 89.36770

_space_group_name_Hall 'P 1'
_space_group_name_H-M_alt 'P 1'

loop_
_symmetry_equiv_pos_as_xyz
 'x,y,z'

loop_
_atom_site_label
_atom_site_type_symbol
_atom_site_fract_x
_atom_site_fract_y
_atom_site_fract_z
C          C       0.47353   0.47748   0.00026
C          C       0.52647   0.52252   0.00026
C          C       0.40144   0.50069   0.00479
C          C       0.59856   0.49931   0.00479
C          C       0.48426   0.40209   0.49478
C          C       0.51574   0.59791   0.49478
C          C       0.36806   0.52378   0.41220
C          C       0.63194   0.47622   0.41220
C          C       0.29785   0.53729   0.41385
C          C       0.70215   0.46271   0.41385
C          C       0.25971   0.52421   0.00605
C          C       0.74029   0.47579   0.00605
C          C       0.29303   0.50252   0.09928
C          C       0.70697   0.49748   0.09928
C          C       0.36358   0.49194   0.09906
C          C       0.63642   0.50806   0.09906
C          C       0.53095   0.63981   0.08298
C          C       0.46905   0.36019   0.08298
C          C       0.53138   0.71129   0.07249
C          C       0.46862   0.28871   0.07249
C          C       0.51395   0.74205   0.47543
C          C       0.48605   0.25795   0.47543
C          C       0.49658   0.70057   0.38777
C          C       0.50342   0.29943   0.38777
C          C       0.49889   0.62892   0.39693
C          C       0.50111   0.37108   0.39693
N          N       0.51987   0.81509   0.46568
N          N       0.48013   0.18491   0.46568
N          N       0.81304   0.46879   0.00309
N          N       0.18696   0.53121   0.00309
C          C       0.47823   0.85373   0.41180
C          C       0.52177   0.14627   0.41180
C          C       0.48953   0.92846   0.40729
C          C       0.51047   0.07154   0.40729
C          C       0.85380   0.51639   0.03834
C          C       0.14620   0.48361   0.03834
C          C       0.92849   0.50753   0.03537
C          C       0.07151   0.49247   0.03537
C          C       0.55601   0.95553   0.40710
C          C       0.44399   0.04447   0.40710
C          C       0.56641   0.02664   0.40512
C          C       0.43359   0.97336   0.40512
C          C       0.95804   0.44183   0.03448
C          C       0.04196   0.55817   0.03448
C          C       0.02907   0.43438   0.03598
C          C       0.97093   0.56562   0.03598
H          H       0.39583   0.52935   0.33825
H          H       0.60417   0.47065   0.33825
H          H       0.27223   0.55475   0.34223
H          H       0.72777   0.44525   0.34223
H          H       0.26402   0.49313   0.17139
H          H       0.73598   0.50687   0.17139
H          H       0.38816   0.47487   0.17153
H          H       0.61184   0.52513   0.17153
H          H       0.54446   0.61751   0.15899
H          H       0.45554   0.38249   0.15899
H          H       0.54591   0.74325   0.13952
H          H       0.45409   0.25675   0.13952
H          H       0.48460   0.72368   0.31145
H          H       0.51540   0.27632   0.31145
H          H       0.48994   0.59765   0.32696
H          H       0.51006   0.40235   0.32696
H          H       0.43251   0.83222   0.37615
H          H       0.56749   0.16778   0.37615
H          H       0.83327   0.56497   0.06624
H          H       0.16673   0.43503   0.06624
H          H       0.59967   0.92137   0.40830
H          H       0.40033   0.07863   0.40830
H          H       0.92597   0.39648   0.03459
H          H       0.07403   0.60352   0.03459
H          H       0.61801   0.04665   0.40526
H          H       0.38199   0.95335   0.40526
H          H       0.05096   0.38327   0.03678
H          H       0.94904   0.61673   0.03678
C          C       0.47353   0.47748   0.50026
C          C       0.52647   0.52252   0.50026
C          C       0.40144   0.50069   0.50479
C          C       0.59856   0.49931   0.50479
C          C       0.48426   0.40209   0.99478
C          C       0.51574   0.59791   0.99478
C          C       0.36806   0.52378   0.91220
C          C       0.63194   0.47622   0.91220
C          C       0.29785   0.53729   0.91385
C          C       0.70215   0.46271   0.91385
C          C       0.25971   0.52421   0.50604
C          C       0.74029   0.47579   0.50604
C          C       0.29303   0.50252   0.59928
C          C       0.70697   0.49748   0.59928
C          C       0.36358   0.49194   0.59906
C          C       0.63642   0.50806   0.59906
C          C       0.53095   0.63981   0.58298
C          C       0.46905   0.36019   0.58298
C          C       0.53138   0.71129   0.57249
C          C       0.46862   0.28871   0.57249
C          C       0.51395   0.74205   0.97543
C          C       0.48605   0.25795   0.97543
C          C       0.49658   0.70057   0.88777
C          C       0.50342   0.29943   0.88777
C          C       0.49889   0.62892   0.89693
C          C       0.50111   0.37108   0.89693
N          N       0.51987   0.81509   0.96568
N          N       0.48013   0.18491   0.96568
N          N       0.81304   0.46879   0.50309
N          N       0.18696   0.53121   0.50309
C          C       0.47823   0.85373   0.91180
C          C       0.52177   0.14627   0.91180
C          C       0.48953   0.92846   0.90729
C          C       0.51047   0.07154   0.90729
C          C       0.85380   0.51639   0.53834
C          C       0.14620   0.48361   0.53834
C          C       0.92849   0.50753   0.53538
C          C       0.07151   0.49247   0.53538
C          C       0.55601   0.95553   0.90711
C          C       0.44399   0.04447   0.90711
C          C       0.56641   0.02664   0.90512
C          C       0.43359   0.97336   0.90512
C          C       0.95804   0.44183   0.53448
C          C       0.04196   0.55817   0.53448
C          C       0.02907   0.43438   0.53597
C          C       0.97093   0.56562   0.53597
H          H       0.39583   0.52935   0.83825
H          H       0.60417   0.47065   0.83825
H          H       0.27223   0.55475   0.84222
H          H       0.72777   0.44525   0.84222
H          H       0.26402   0.49313   0.67139
H          H       0.73598   0.50687   0.67139
H          H       0.38816   0.47487   0.67152
H          H       0.61184   0.52513   0.67152
H          H       0.54446   0.61751   0.65899
H          H       0.45554   0.38249   0.65899
H          H       0.54591   0.74325   0.63952
H          H       0.45409   0.25675   0.63952
H          H       0.48460   0.72368   0.81145
H          H       0.51540   0.27632   0.81145
H          H       0.48994   0.59765   0.82697
H          H       0.51006   0.40235   0.82697
H          H       0.43251   0.83222   0.87615
H          H       0.56749   0.16778   0.87615
H          H       0.83327   0.56497   0.56624
H          H       0.16673   0.43503   0.56624
H          H       0.59967   0.92137   0.90830
H          H       0.40033   0.07863   0.90830
H          H       0.92597   0.39648   0.53459
H          H       0.07403   0.60352   0.53459
H          H       0.61801   0.04665   0.90526
H          H       0.38199   0.95335   0.90526
H          H       0.05096   0.38327   0.53678
H          H       0.94904   0.61673   0.53678
