data_crystal

_cell_length_a    35.75270
_cell_length_b    35.75270
_cell_length_c    7.34000
_cell_angle_alpha 90.00000
_cell_angle_beta  90.00000
_cell_angle_gamma 120.00000

_space_group_name_Hall 'P 1'
_space_group_name_H-M_alt 'P 1'

loop_
_symmetry_equiv_pos_as_xyz
 'x,y,z'

loop_
_atom_site_label
_atom_site_type_symbol
_atom_site_fract_x
_atom_site_fract_y
_atom_site_fract_z
N          N       0.62504   0.31419   0.00474
N          N       0.68581   0.31085   0.00474
N          N       0.68915   0.37496   0.00474
N          N       0.37496   0.68581   0.00474
N          N       0.31419   0.68915   0.00474
N          N       0.31085   0.62504   0.00474
C          C       0.64402   0.29141   0.00476
C          C       0.70859   0.35261   0.00476
C          C       0.64739   0.35598   0.00476
C          C       0.35598   0.70859   0.00476
C          C       0.29141   0.64739   0.00476
C          C       0.35261   0.64402   0.00476
C          C       0.62635   0.38070   0.00438
C          C       0.61930   0.24565   0.00438
C          C       0.75435   0.37365   0.00438
C          C       0.37365   0.61930   0.00438
C          C       0.38070   0.75435   0.00438
C          C       0.24565   0.62635   0.00438
C          C       0.64908   0.42380   0.48178
C          C       0.57620   0.22528   0.48178
C          C       0.77472   0.35092   0.48178
C          C       0.35092   0.57620   0.48178
C          C       0.42380   0.77472   0.48178
C          C       0.22528   0.64908   0.48178
C          C       0.62913   0.44695   0.48069
C          C       0.55305   0.18218   0.48069
C          C       0.81782   0.37087   0.48069
C          C       0.37087   0.55305   0.48069
C          C       0.44695   0.81782   0.48069
C          C       0.18218   0.62913   0.48069
C          C       0.58634   0.42783   0.00169
C          C       0.57217   0.15851   0.00169
C          C       0.84149   0.41366   0.00169
C          C       0.41366   0.57217   0.00169
C          C       0.42783   0.84149   0.00169
C          C       0.15851   0.58634   0.00169
C          C       0.56346   0.38475   0.02660
C          C       0.61525   0.17871   0.02660
C          C       0.82129   0.43654   0.02660
C          C       0.43654   0.61525   0.02660
C          C       0.38475   0.82129   0.02660
C          C       0.17871   0.56346   0.02660
C          C       0.58330   0.36147   0.02705
C          C       0.63853   0.22183   0.02705
C          C       0.77817   0.41670   0.02705
C          C       0.41670   0.63853   0.02705
C          C       0.36147   0.77817   0.02705
C          C       0.22183   0.58330   0.02705
N          N       0.56786   0.45350   0.49999
N          N       0.54650   0.11436   0.49999
N          N       0.88564   0.43214   0.49999
N          N       0.43214   0.54650   0.49999
N          N       0.45350   0.88564   0.49999
N          N       0.11436   0.56786   0.49999
C          C       0.52868   0.44131   0.49419
C          C       0.55869   0.08737   0.49419
C          C       0.91263   0.47132   0.49419
C          C       0.47132   0.55869   0.49419
C          C       0.44131   0.91263   0.49419
C          C       0.08737   0.52868   0.49419
C          C       0.51430   0.47156   0.49434
C          C       0.52844   0.04274   0.49434
C          C       0.95726   0.48570   0.49434
C          C       0.48570   0.52844   0.49434
C          C       0.47156   0.95726   0.49434
C          C       0.04274   0.51430   0.49434
C          C       0.54236   0.51420   0.49447
C          C       0.48580   0.02816   0.49447
C          C       0.97184   0.45764   0.49447
C          C       0.45764   0.48580   0.49447
C          C       0.51420   0.97184   0.49447
C          C       0.02816   0.54236   0.49447
C          C       0.52817   0.54240   0.49417
C          C       0.45760   0.98577   0.49417
C          C       0.01423   0.47183   0.49417
C          C       0.47183   0.45760   0.49417
C          C       0.54240   0.01423   0.49417
C          C       0.98577   0.52817   0.49417
H          H       0.44966   0.42488   0.49407
H          H       0.57512   0.02478   0.49407
H          H       0.97522   0.55034   0.49407
H          H       0.55034   0.57512   0.49407
H          H       0.42488   0.97522   0.49407
H          H       0.02478   0.44966   0.49407
H          H       0.68224   0.43947   0.46355
H          H       0.56053   0.24277   0.46355
H          H       0.75723   0.31776   0.46355
H          H       0.31776   0.56053   0.46355
H          H       0.43947   0.75723   0.46355
H          H       0.24277   0.68224   0.46355
H          H       0.64687   0.48005   0.46216
H          H       0.51995   0.16682   0.46216
H          H       0.83318   0.35313   0.46216
H          H       0.35313   0.51995   0.46216
H          H       0.48005   0.83318   0.46216
H          H       0.16682   0.64687   0.46216
H          H       0.53055   0.36887   0.04856
H          H       0.63113   0.16168   0.04856
H          H       0.83832   0.46945   0.04856
H          H       0.46945   0.63113   0.04856
H          H       0.36887   0.83832   0.04856
H          H       0.16168   0.53055   0.04856
H          H       0.56509   0.32839   0.04720
H          H       0.67161   0.23670   0.04720
H          H       0.76330   0.43491   0.04720
H          H       0.43491   0.67161   0.04720
H          H       0.32839   0.76330   0.04720
H          H       0.23670   0.56509   0.04720
H          H       0.50576   0.40896   0.48667
H          H       0.59104   0.09680   0.48667
H          H       0.90320   0.49424   0.48667
H          H       0.49424   0.59104   0.48667
H          H       0.40896   0.90320   0.48667
H          H       0.09680   0.50576   0.48667
H          H       0.57524   0.52557   0.49445
H          H       0.47443   0.04967   0.49445
H          H       0.95033   0.42476   0.49445
H          H       0.42476   0.47443   0.49445
H          H       0.52557   0.95033   0.49445
H          H       0.04967   0.57524   0.49445
N          N       0.62504   0.31419   0.50474
N          N       0.68581   0.31085   0.50474
N          N       0.68915   0.37496   0.50474
N          N       0.37496   0.68581   0.50474
N          N       0.31419   0.68915   0.50474
N          N       0.31085   0.62504   0.50474
C          C       0.64402   0.29141   0.50476
C          C       0.70859   0.35261   0.50476
C          C       0.64739   0.35598   0.50476
C          C       0.35598   0.70859   0.50476
C          C       0.29141   0.64739   0.50476
C          C       0.35261   0.64402   0.50476
C          C       0.62635   0.38070   0.50438
C          C       0.61930   0.24565   0.50438
C          C       0.75435   0.37365   0.50438
C          C       0.37365   0.61930   0.50438
C          C       0.38070   0.75435   0.50438
C          C       0.24565   0.62635   0.50438
C          C       0.64908   0.42380   0.98178
C          C       0.57620   0.22528   0.98178
C          C       0.77472   0.35092   0.98178
C          C       0.35092   0.57620   0.98178
C          C       0.42380   0.77472   0.98178
C          C       0.22528   0.64908   0.98178
C          C       0.62913   0.44695   0.98069
C          C       0.55305   0.18218   0.98069
C          C       0.81782   0.37087   0.98069
C          C       0.37087   0.55305   0.98069
C          C       0.44695   0.81782   0.98069
C          C       0.18218   0.62913   0.98069
C          C       0.58634   0.42783   0.50170
C          C       0.57217   0.15851   0.50170
C          C       0.84149   0.41366   0.50170
C          C       0.41366   0.57217   0.50170
C          C       0.42783   0.84149   0.50170
C          C       0.15851   0.58634   0.50170
C          C       0.56346   0.38475   0.52660
C          C       0.61525   0.17871   0.52660
C          C       0.82129   0.43654   0.52660
C          C       0.43654   0.61525   0.52660
C          C       0.38475   0.82129   0.52660
C          C       0.17871   0.56346   0.52660
C          C       0.58330   0.36147   0.52705
C          C       0.63853   0.22183   0.52705
C          C       0.77817   0.41670   0.52705
C          C       0.41670   0.63853   0.52705
C          C       0.36147   0.77817   0.52705
C          C       0.22183   0.58330   0.52705
N          N       0.56786   0.45350   0.99999
N          N       0.54650   0.11436   0.99999
N          N       0.88564   0.43214   0.99999
N          N       0.43214   0.54650   0.99999
N          N       0.45350   0.88564   0.99999
N          N       0.11436   0.56786   0.99999
C          C       0.52868   0.44131   0.99419
C          C       0.55869   0.08737   0.99419
C          C       0.91263   0.47132   0.99419
C          C       0.47132   0.55869   0.99419
C          C       0.44131   0.91263   0.99419
C          C       0.08737   0.52868   0.99419
C          C       0.51430   0.47156   0.99434
C          C       0.52844   0.04274   0.99434
C          C       0.95726   0.48570   0.99434
C          C       0.48570   0.52844   0.99434
C          C       0.47156   0.95726   0.99434
C          C       0.04274   0.51430   0.99434
C          C       0.54236   0.51420   0.99447
C          C       0.48580   0.02816   0.99447
C          C       0.97184   0.45764   0.99447
C          C       0.45764   0.48580   0.99447
C          C       0.51420   0.97184   0.99447
C          C       0.02816   0.54236   0.99447
C          C       0.52817   0.54240   0.99416
C          C       0.45760   0.98577   0.99416
C          C       0.01423   0.47183   0.99416
C          C       0.47183   0.45760   0.99416
C          C       0.54240   0.01423   0.99416
C          C       0.98577   0.52817   0.99416
H          H       0.44966   0.42488   0.99407
H          H       0.57512   0.02478   0.99407
H          H       0.97522   0.55034   0.99407
H          H       0.55034   0.57512   0.99407
H          H       0.42488   0.97522   0.99407
H          H       0.02478   0.44966   0.99407
H          H       0.68224   0.43947   0.96356
H          H       0.56053   0.24277   0.96356
H          H       0.75723   0.31776   0.96356
H          H       0.31776   0.56053   0.96356
H          H       0.43947   0.75723   0.96356
H          H       0.24277   0.68224   0.96356
H          H       0.64687   0.48005   0.96216
H          H       0.51995   0.16682   0.96216
H          H       0.83318   0.35313   0.96216
H          H       0.35313   0.51995   0.96216
H          H       0.48005   0.83318   0.96216
H          H       0.16682   0.64687   0.96216
H          H       0.53055   0.36887   0.54856
H          H       0.63113   0.16168   0.54856
H          H       0.83832   0.46945   0.54856
H          H       0.46945   0.63113   0.54856
H          H       0.36887   0.83832   0.54856
H          H       0.16168   0.53055   0.54856
H          H       0.56509   0.32839   0.54719
H          H       0.67161   0.23670   0.54719
H          H       0.76330   0.43491   0.54719
H          H       0.43491   0.67161   0.54719
H          H       0.32839   0.76330   0.54719
H          H       0.23670   0.56509   0.54719
H          H       0.50576   0.40896   0.98667
H          H       0.59104   0.09680   0.98667
H          H       0.90320   0.49424   0.98667
H          H       0.49424   0.59104   0.98667
H          H       0.40896   0.90320   0.98667
H          H       0.09680   0.50576   0.98667
H          H       0.57524   0.52557   0.99445
H          H       0.47443   0.04967   0.99445
H          H       0.95033   0.42476   0.99445
H          H       0.42476   0.47443   0.99445
H          H       0.52557   0.95033   0.99445
H          H       0.04967   0.57524   0.99445
