data_crystal

_cell_length_a    44.91220
_cell_length_b    44.91220
_cell_length_c    9.58260
_cell_angle_alpha 90.00000
_cell_angle_beta  90.00000
_cell_angle_gamma 120.00000

_space_group_name_Hall 'P 1'
_space_group_name_H-M_alt 'P 1'

loop_
_symmetry_equiv_pos_as_xyz
 'x,y,z'

loop_
_atom_site_label
_atom_site_type_symbol
_atom_site_fract_x
_atom_site_fract_y
_atom_site_fract_z
C          C       0.03137   0.49863   0.05759
C          C       0.50137   0.53274   0.05759
C          C       0.46726   0.96863   0.05759
C          C       0.96863   0.50137   0.05759
C          C       0.49863   0.46726   0.05759
C          C       0.53274   0.03137   0.05759
C          C       0.03269   0.53147   0.04213
C          C       0.46853   0.50122   0.04213
C          C       0.49878   0.96731   0.04213
C          C       0.96731   0.46853   0.04213
C          C       0.53147   0.49878   0.04213
C          C       0.50122   0.03269   0.04213
C          C       0.00134   0.53394   0.04886
C          C       0.46606   0.46740   0.04886
C          C       0.53260   0.99866   0.04886
C          C       0.99866   0.46606   0.04886
C          C       0.53394   0.53260   0.04886
C          C       0.46740   0.00134   0.04886
N          N       0.99747   0.43146   0.04479
N          N       0.56854   0.56601   0.04479
N          N       0.43399   0.00253   0.04479
N          N       0.00253   0.56854   0.04479
N          N       0.43146   0.43399   0.04479
N          N       0.56601   0.99747   0.04479
C          C       0.96386   0.39768   0.05608
C          C       0.60232   0.56618   0.05608
C          C       0.43382   0.03614   0.05608
C          C       0.03614   0.60232   0.05608
C          C       0.39768   0.43382   0.05608
C          C       0.56618   0.96386   0.05608
C          C       0.97015   0.57058   0.02226
C          C       0.42942   0.39957   0.02226
C          C       0.60043   0.02985   0.02226
C          C       0.02985   0.42942   0.02226
C          C       0.57058   0.60043   0.02226
C          C       0.39957   0.97015   0.02226
C          C       0.96509   0.59569   0.10522
C          C       0.40431   0.36940   0.10522
C          C       0.63060   0.03491   0.10522
C          C       0.03491   0.40431   0.10522
C          C       0.59569   0.63060   0.10522
C          C       0.36940   0.96509   0.10522
C          C       0.93419   0.59792   0.08638
C          C       0.40208   0.33627   0.08638
C          C       0.66373   0.06581   0.08638
C          C       0.06581   0.40208   0.08638
C          C       0.59792   0.66373   0.08638
C          C       0.33627   0.93419   0.08638
C          C       0.90700   0.57424   0.48873
C          C       0.42576   0.33276   0.48873
C          C       0.66724   0.09300   0.48873
C          C       0.09300   0.42576   0.48873
C          C       0.57424   0.66724   0.48873
C          C       0.33276   0.90700   0.48873
C          C       0.91214   0.54995   0.40053
C          C       0.45005   0.36219   0.40053
C          C       0.63781   0.08786   0.40053
C          C       0.08786   0.45005   0.40053
C          C       0.54995   0.63781   0.40053
C          C       0.36219   0.91214   0.40053
C          C       0.94407   0.54915   0.41297
C          C       0.45085   0.39492   0.41297
C          C       0.60508   0.05593   0.41297
C          C       0.05593   0.45085   0.41297
C          C       0.54915   0.60508   0.41297
C          C       0.39492   0.94407   0.41297
C          C       0.93679   0.39260   0.16053
C          C       0.60740   0.54419   0.16053
C          C       0.45581   0.06321   0.16053
C          C       0.06321   0.60740   0.16053
C          C       0.39260   0.45581   0.16053
C          C       0.54419   0.93679   0.16053
C          C       0.90339   0.36117   0.15704
C          C       0.63883   0.54222   0.15704
C          C       0.45778   0.09661   0.15704
C          C       0.09661   0.63883   0.15704
C          C       0.36117   0.45778   0.15704
C          C       0.54222   0.90339   0.15704
C          C       0.89708   0.33323   0.05670
C          C       0.66677   0.56385   0.05670
C          C       0.43615   0.10292   0.05670
C          C       0.10292   0.66677   0.05670
C          C       0.33323   0.43615   0.05670
C          C       0.56385   0.89708   0.05670
C          C       0.92550   0.33662   0.46541
C          C       0.66338   0.58888   0.46541
C          C       0.41112   0.07450   0.46541
C          C       0.07450   0.66338   0.46541
C          C       0.33662   0.41112   0.46541
C          C       0.58888   0.92550   0.46541
C          C       0.95807   0.36856   0.46366
C          C       0.63144   0.58951   0.46366
C          C       0.41049   0.04193   0.46366
C          C       0.04193   0.63144   0.46366
C          C       0.36856   0.41049   0.46366
C          C       0.58951   0.95807   0.46366
N          N       0.86172   0.30232   0.05023
N          N       0.69768   0.55940   0.05023
N          N       0.44060   0.13828   0.05023
N          N       0.13828   0.69768   0.05023
N          N       0.30232   0.44060   0.05023
N          N       0.55940   0.86172   0.05023
N          N       0.87503   0.57637   0.47792
N          N       0.42363   0.29866   0.47792
N          N       0.70134   0.12497   0.47792
N          N       0.12497   0.42363   0.47792
N          N       0.57637   0.70134   0.47792
N          N       0.29866   0.87503   0.47792
C          C       0.81528   0.58474   0.38732
C          C       0.41526   0.23054   0.38732
C          C       0.76946   0.18472   0.38732
C          C       0.18472   0.41526   0.38732
C          C       0.58474   0.76946   0.38732
C          C       0.23054   0.81528   0.38732
C          C       0.78674   0.59147   0.38144
C          C       0.40853   0.19527   0.38144
C          C       0.80473   0.21326   0.38144
C          C       0.21326   0.40853   0.38144
C          C       0.59147   0.80473   0.38144
C          C       0.19527   0.78674   0.38144
C          C       0.75393   0.56737   0.45296
C          C       0.43263   0.18656   0.45296
C          C       0.81344   0.24607   0.45296
C          C       0.24607   0.43263   0.45296
C          C       0.56737   0.81344   0.45296
C          C       0.18656   0.75393   0.45296
C          C       0.75049   0.53689   0.02712
C          C       0.46311   0.21360   0.02712
C          C       0.78640   0.24951   0.02712
C          C       0.24951   0.46311   0.02712
C          C       0.53689   0.78640   0.02712
C          C       0.21360   0.75049   0.02712
C          C       0.77893   0.52985   0.03044
C          C       0.47015   0.24908   0.03044
C          C       0.75092   0.22107   0.03044
C          C       0.22107   0.47015   0.03044
C          C       0.52985   0.75092   0.03044
C          C       0.24908   0.77893   0.03044
C          C       0.81183   0.55427   0.46105
C          C       0.44573   0.25756   0.46105
C          C       0.74244   0.18817   0.46105
C          C       0.18817   0.44573   0.46105
C          C       0.55427   0.74244   0.46105
C          C       0.25756   0.81183   0.46105
C          C       0.84305   0.54890   0.46677
C          C       0.45110   0.29415   0.46677
C          C       0.70585   0.15695   0.46677
C          C       0.15695   0.45110   0.46677
C          C       0.54890   0.70585   0.46677
C          C       0.29415   0.84305   0.46677
C          C       0.72325   0.57373   0.44899
C          C       0.42627   0.14952   0.44899
C          C       0.85048   0.27675   0.44899
C          C       0.27675   0.42627   0.44899
C          C       0.57373   0.85048   0.44899
C          C       0.14952   0.72325   0.44899
H          H       0.05698   0.49779   0.07762
H          H       0.50221   0.55919   0.07762
H          H       0.44081   0.94302   0.07762
H          H       0.94302   0.50221   0.07762
H          H       0.49779   0.44081   0.07762
H          H       0.55919   0.05698   0.07762
H          H       0.05940   0.55689   0.02373
H          H       0.44311   0.50251   0.02373
H          H       0.49749   0.94060   0.02373
H          H       0.94060   0.44311   0.02373
H          H       0.55689   0.49749   0.02373
H          H       0.50251   0.05940   0.02373
H          H       0.98640   0.61459   0.18927
H          H       0.38541   0.37181   0.18927
H          H       0.62819   0.01360   0.18927
H          H       0.01360   0.38541   0.18927
H          H       0.61459   0.62819   0.18927
H          H       0.37181   0.98640   0.18927
H          H       0.93108   0.61914   0.15088
H          H       0.38086   0.31194   0.15088
H          H       0.68806   0.06892   0.15088
H          H       0.06892   0.38086   0.15088
H          H       0.61914   0.68806   0.15088
H          H       0.31194   0.93108   0.15088
H          H       0.89034   0.53085   0.31871
H          H       0.46915   0.35949   0.31871
H          H       0.64051   0.10966   0.31871
H          H       0.10966   0.46915   0.31871
H          H       0.53085   0.64051   0.31871
H          H       0.35949   0.89034   0.31871
H          H       0.94884   0.53096   0.33372
H          H       0.46904   0.41788   0.33372
H          H       0.58212   0.05116   0.33372
H          H       0.05116   0.46904   0.33372
H          H       0.53096   0.58212   0.33372
H          H       0.41788   0.94884   0.33372
H          H       0.94191   0.41411   0.24886
H          H       0.58589   0.52780   0.24886
H          H       0.47220   0.05809   0.24886
H          H       0.05809   0.58589   0.24886
H          H       0.41411   0.47220   0.24886
H          H       0.52780   0.94191   0.24886
H          H       0.88107   0.35817   0.23628
H          H       0.64183   0.52290   0.23628
H          H       0.47710   0.11893   0.23628
H          H       0.11893   0.64183   0.23628
H          H       0.35817   0.47710   0.23628
H          H       0.52290   0.88107   0.23628
H          H       0.92197   0.31319   0.39237
H          H       0.68681   0.60878   0.39237
H          H       0.39122   0.07803   0.39237
H          H       0.07803   0.68681   0.39237
H          H       0.31319   0.39122   0.39237
H          H       0.60878   0.92197   0.39237
H          H       0.98022   0.37079   0.38536
H          H       0.62921   0.60943   0.38536
H          H       0.39057   0.01978   0.38536
H          H       0.01978   0.62921   0.38536
H          H       0.37079   0.39057   0.38536
H          H       0.60943   0.98022   0.38536
H          H       0.84189   0.60418   0.33161
H          H       0.39582   0.23771   0.33161
H          H       0.76229   0.15811   0.33161
H          H       0.15811   0.39582   0.33161
H          H       0.60418   0.76229   0.33161
H          H       0.23771   0.84189   0.33161
H          H       0.72433   0.51738   0.08589
H          H       0.48262   0.20695   0.08589
H          H       0.79305   0.27567   0.08589
H          H       0.27567   0.48262   0.08589
H          H       0.51738   0.79305   0.08589
H          H       0.20695   0.72433   0.08589
H          H       0.83899   0.52078   0.46141
H          H       0.47922   0.31821   0.46141
H          H       0.68179   0.16101   0.46141
H          H       0.16101   0.47922   0.46141
H          H       0.52078   0.68179   0.46141
H          H       0.31821   0.83899   0.46141
H          H       0.72171   0.59147   0.35599
H          H       0.40853   0.13024   0.35599
H          H       0.86976   0.27829   0.35599
H          H       0.27829   0.40853   0.35599
H          H       0.59147   0.86976   0.35599
H          H       0.13024   0.72171   0.35599
H          H       0.79005   0.61617   0.31949
H          H       0.38383   0.17388   0.31949
H          H       0.82612   0.20995   0.31949
H          H       0.20995   0.38383   0.31949
H          H       0.61617   0.82612   0.31949
H          H       0.17388   0.79005   0.31949
H          H       0.77534   0.50466   0.08868
H          H       0.49534   0.27068   0.08868
H          H       0.72932   0.22466   0.08868
H          H       0.22466   0.49534   0.08868
H          H       0.50466   0.72932   0.08868
H          H       0.27068   0.77534   0.08868
C          C       0.03137   0.49863   0.55758
C          C       0.50137   0.53274   0.55758
C          C       0.46726   0.96863   0.55758
C          C       0.96863   0.50137   0.55758
C          C       0.49863   0.46726   0.55758
C          C       0.53274   0.03137   0.55758
C          C       0.03269   0.53147   0.54213
C          C       0.46853   0.50122   0.54213
C          C       0.49878   0.96731   0.54213
C          C       0.96731   0.46853   0.54213
C          C       0.53147   0.49878   0.54213
C          C       0.50122   0.03269   0.54213
C          C       0.00134   0.53394   0.54885
C          C       0.46606   0.46740   0.54885
C          C       0.53260   0.99866   0.54885
C          C       0.99866   0.46606   0.54885
C          C       0.53394   0.53260   0.54885
C          C       0.46740   0.00134   0.54885
N          N       0.99747   0.43146   0.54479
N          N       0.56854   0.56601   0.54479
N          N       0.43399   0.00253   0.54479
N          N       0.00253   0.56854   0.54479
N          N       0.43146   0.43399   0.54479
N          N       0.56601   0.99747   0.54479
C          C       0.96386   0.39768   0.55608
C          C       0.60232   0.56618   0.55608
C          C       0.43382   0.03614   0.55608
C          C       0.03614   0.60232   0.55608
C          C       0.39768   0.43382   0.55608
C          C       0.56618   0.96386   0.55608
C          C       0.97015   0.57058   0.52226
C          C       0.42942   0.39957   0.52226
C          C       0.60043   0.02985   0.52226
C          C       0.02985   0.42942   0.52226
C          C       0.57058   0.60043   0.52226
C          C       0.39957   0.97015   0.52226
C          C       0.96509   0.59569   0.60521
C          C       0.40431   0.36940   0.60521
C          C       0.63060   0.03491   0.60521
C          C       0.03491   0.40431   0.60521
C          C       0.59569   0.63060   0.60521
C          C       0.36940   0.96509   0.60521
C          C       0.93419   0.59792   0.58638
C          C       0.40208   0.33627   0.58638
C          C       0.66373   0.06581   0.58638
C          C       0.06581   0.40208   0.58638
C          C       0.59792   0.66373   0.58638
C          C       0.33627   0.93419   0.58638
C          C       0.90700   0.57424   0.98874
C          C       0.42576   0.33276   0.98874
C          C       0.66724   0.09300   0.98874
C          C       0.09300   0.42576   0.98874
C          C       0.57424   0.66724   0.98874
C          C       0.33276   0.90700   0.98874
C          C       0.91214   0.54995   0.90053
C          C       0.45005   0.36219   0.90053
C          C       0.63781   0.08786   0.90053
C          C       0.08786   0.45005   0.90053
C          C       0.54995   0.63781   0.90053
C          C       0.36219   0.91214   0.90053
C          C       0.94407   0.54915   0.91297
C          C       0.45085   0.39492   0.91297
C          C       0.60508   0.05593   0.91297
C          C       0.05593   0.45085   0.91297
C          C       0.54915   0.60508   0.91297
C          C       0.39492   0.94407   0.91297
C          C       0.93679   0.39260   0.66053
C          C       0.60740   0.54419   0.66053
C          C       0.45581   0.06321   0.66053
C          C       0.06321   0.60740   0.66053
C          C       0.39260   0.45581   0.66053
C          C       0.54419   0.93679   0.66053
C          C       0.90339   0.36117   0.65704
C          C       0.63883   0.54222   0.65704
C          C       0.45778   0.09661   0.65704
C          C       0.09661   0.63883   0.65704
C          C       0.36117   0.45778   0.65704
C          C       0.54222   0.90339   0.65704
C          C       0.89708   0.33323   0.55670
C          C       0.66677   0.56385   0.55670
C          C       0.43615   0.10292   0.55670
C          C       0.10292   0.66677   0.55670
C          C       0.33323   0.43615   0.55670
C          C       0.56385   0.89708   0.55670
C          C       0.92550   0.33662   0.96540
C          C       0.66338   0.58888   0.96540
C          C       0.41112   0.07450   0.96540
C          C       0.07450   0.66338   0.96540
C          C       0.33662   0.41112   0.96540
C          C       0.58888   0.92550   0.96540
C          C       0.95807   0.36856   0.96366
C          C       0.63144   0.58951   0.96366
C          C       0.41049   0.04193   0.96366
C          C       0.04193   0.63144   0.96366
C          C       0.36856   0.41049   0.96366
C          C       0.58951   0.95807   0.96366
N          N       0.86172   0.30232   0.55023
N          N       0.69768   0.55940   0.55023
N          N       0.44060   0.13828   0.55023
N          N       0.13828   0.69768   0.55023
N          N       0.30232   0.44060   0.55023
N          N       0.55940   0.86172   0.55023
N          N       0.87503   0.57637   0.97792
N          N       0.42363   0.29866   0.97792
N          N       0.70134   0.12497   0.97792
N          N       0.12497   0.42363   0.97792
N          N       0.57637   0.70134   0.97792
N          N       0.29866   0.87503   0.97792
C          C       0.81528   0.58474   0.88732
C          C       0.41526   0.23054   0.88732
C          C       0.76946   0.18472   0.88732
C          C       0.18472   0.41526   0.88732
C          C       0.58474   0.76946   0.88732
C          C       0.23054   0.81528   0.88732
C          C       0.78674   0.59147   0.88145
C          C       0.40853   0.19527   0.88145
C          C       0.80473   0.21326   0.88145
C          C       0.21326   0.40853   0.88145
C          C       0.59147   0.80473   0.88145
C          C       0.19527   0.78674   0.88145
C          C       0.75393   0.56737   0.95296
C          C       0.43263   0.18656   0.95296
C          C       0.81344   0.24607   0.95296
C          C       0.24607   0.43263   0.95296
C          C       0.56737   0.81344   0.95296
C          C       0.18656   0.75393   0.95296
C          C       0.75049   0.53689   0.52712
C          C       0.46311   0.21360   0.52712
C          C       0.78640   0.24951   0.52712
C          C       0.24951   0.46311   0.52712
C          C       0.53689   0.78640   0.52712
C          C       0.21360   0.75049   0.52712
C          C       0.77893   0.52985   0.53044
C          C       0.47015   0.24908   0.53044
C          C       0.75092   0.22107   0.53044
C          C       0.22107   0.47015   0.53044
C          C       0.52985   0.75092   0.53044
C          C       0.24908   0.77893   0.53044
C          C       0.81183   0.55427   0.96105
C          C       0.44573   0.25756   0.96105
C          C       0.74244   0.18817   0.96105
C          C       0.18817   0.44573   0.96105
C          C       0.55427   0.74244   0.96105
C          C       0.25756   0.81183   0.96105
C          C       0.84305   0.54890   0.96677
C          C       0.45110   0.29415   0.96677
C          C       0.70585   0.15695   0.96677
C          C       0.15695   0.45110   0.96677
C          C       0.54890   0.70585   0.96677
C          C       0.29415   0.84305   0.96677
C          C       0.72325   0.57373   0.94898
C          C       0.42627   0.14952   0.94898
C          C       0.85048   0.27675   0.94898
C          C       0.27675   0.42627   0.94898
C          C       0.57373   0.85048   0.94898
C          C       0.14952   0.72325   0.94898
H          H       0.05698   0.49779   0.57763
H          H       0.50221   0.55919   0.57763
H          H       0.44081   0.94302   0.57763
H          H       0.94302   0.50221   0.57763
H          H       0.49779   0.44081   0.57763
H          H       0.55919   0.05698   0.57763
H          H       0.05940   0.55689   0.52374
H          H       0.44311   0.50251   0.52374
H          H       0.49749   0.94060   0.52374
H          H       0.94060   0.44311   0.52374
H          H       0.55689   0.49749   0.52374
H          H       0.50251   0.05940   0.52374
H          H       0.98640   0.61459   0.68927
H          H       0.38541   0.37181   0.68927
H          H       0.62819   0.01360   0.68927
H          H       0.01360   0.38541   0.68927
H          H       0.61459   0.62819   0.68927
H          H       0.37181   0.98640   0.68927
H          H       0.93108   0.61914   0.65088
H          H       0.38086   0.31194   0.65088
H          H       0.68806   0.06892   0.65088
H          H       0.06892   0.38086   0.65088
H          H       0.61914   0.68806   0.65088
H          H       0.31194   0.93108   0.65088
H          H       0.89034   0.53085   0.81871
H          H       0.46915   0.35949   0.81871
H          H       0.64051   0.10966   0.81871
H          H       0.10966   0.46915   0.81871
H          H       0.53085   0.64051   0.81871
H          H       0.35949   0.89034   0.81871
H          H       0.94884   0.53096   0.83372
H          H       0.46904   0.41788   0.83372
H          H       0.58212   0.05116   0.83372
H          H       0.05116   0.46904   0.83372
H          H       0.53096   0.58212   0.83372
H          H       0.41788   0.94884   0.83372
H          H       0.94191   0.41411   0.74886
H          H       0.58589   0.52780   0.74886
H          H       0.47220   0.05809   0.74886
H          H       0.05809   0.58589   0.74886
H          H       0.41411   0.47220   0.74886
H          H       0.52780   0.94191   0.74886
H          H       0.88107   0.35817   0.73628
H          H       0.64183   0.52290   0.73628
H          H       0.47710   0.11893   0.73628
H          H       0.11893   0.64183   0.73628
H          H       0.35817   0.47710   0.73628
H          H       0.52290   0.88107   0.73628
H          H       0.92197   0.31319   0.89237
H          H       0.68681   0.60878   0.89237
H          H       0.39122   0.07803   0.89237
H          H       0.07803   0.68681   0.89237
H          H       0.31319   0.39122   0.89237
H          H       0.60878   0.92197   0.89237
H          H       0.98022   0.37079   0.88536
H          H       0.62921   0.60943   0.88536
H          H       0.39057   0.01978   0.88536
H          H       0.01978   0.62921   0.88536
H          H       0.37079   0.39057   0.88536
H          H       0.60943   0.98022   0.88536
H          H       0.84189   0.60418   0.83161
H          H       0.39582   0.23771   0.83161
H          H       0.76229   0.15811   0.83161
H          H       0.15811   0.39582   0.83161
H          H       0.60418   0.76229   0.83161
H          H       0.23771   0.84189   0.83161
H          H       0.72433   0.51738   0.58589
H          H       0.48262   0.20695   0.58589
H          H       0.79305   0.27567   0.58589
H          H       0.27567   0.48262   0.58589
H          H       0.51738   0.79305   0.58589
H          H       0.20695   0.72433   0.58589
H          H       0.83899   0.52078   0.96141
H          H       0.47922   0.31821   0.96141
H          H       0.68179   0.16101   0.96141
H          H       0.16101   0.47922   0.96141
H          H       0.52078   0.68179   0.96141
H          H       0.31821   0.83899   0.96141
H          H       0.72171   0.59147   0.85599
H          H       0.40853   0.13024   0.85599
H          H       0.86976   0.27829   0.85599
H          H       0.27829   0.40853   0.85599
H          H       0.59147   0.86976   0.85599
H          H       0.13024   0.72171   0.85599
H          H       0.79005   0.61617   0.81949
H          H       0.38383   0.17388   0.81949
H          H       0.82612   0.20995   0.81949
H          H       0.20995   0.38383   0.81949
H          H       0.61617   0.82612   0.81949
H          H       0.17388   0.79005   0.81949
H          H       0.77534   0.50466   0.58868
H          H       0.49534   0.27068   0.58868
H          H       0.72932   0.22466   0.58868
H          H       0.22466   0.49534   0.58868
H          H       0.50466   0.72932   0.58868
H          H       0.27068   0.77534   0.58868
