data_crystal

_cell_length_a    33.27740
_cell_length_b    33.27740
_cell_length_c    20.91740
_cell_angle_alpha 90.00000
_cell_angle_beta  90.00000
_cell_angle_gamma 120.00000

_space_group_name_Hall 'P 1'
_space_group_name_H-M_alt 'P 1'

loop_
_symmetry_equiv_pos_as_xyz
 'x,y,z'

loop_
_atom_site_label
_atom_site_type_symbol
_atom_site_fract_x
_atom_site_fract_y
_atom_site_fract_z
C          C       0.29236   0.28879   0.08335
C          C       0.71121   0.00357   0.08335
C          C       0.99643   0.70764   0.08335
C          C       0.28879   0.29236   0.41665
C          C       0.00357   0.71121   0.41665
C          C       0.70764   0.99643   0.41665
C          C       0.95903   0.62212   0.25001
C          C       0.37788   0.33690   0.25001
C          C       0.66310   0.04097   0.25001
C          C       0.95546   0.62569   0.08332
C          C       0.67024   0.04454   0.08332
C          C       0.37431   0.32976   0.08332
C          C       0.62569   0.95546   0.41668
C          C       0.04454   0.67024   0.41668
C          C       0.32976   0.37431   0.41668
C          C       0.62212   0.95903   0.24999
C          C       0.33690   0.37788   0.24999
C          C       0.04097   0.66310   0.24999
C          C       0.29398   0.24801   0.08335
C          C       0.75199   0.04597   0.08335
C          C       0.95403   0.70602   0.08335
C          C       0.24801   0.29398   0.41665
C          C       0.04597   0.75199   0.41665
C          C       0.70602   0.95403   0.41665
C          C       0.96065   0.58134   0.25001
C          C       0.41866   0.37930   0.25001
C          C       0.62070   0.03935   0.25001
C          C       0.91468   0.62731   0.08332
C          C       0.71264   0.08532   0.08332
C          C       0.37269   0.28736   0.08332
C          C       0.62731   0.91468   0.41668
C          C       0.08532   0.71264   0.41668
C          C       0.28736   0.37269   0.41668
C          C       0.58134   0.96065   0.24999
C          C       0.37930   0.41866   0.24999
C          C       0.03935   0.62070   0.24999
C          C       0.25188   0.20361   0.08336
C          C       0.79639   0.04827   0.08336
C          C       0.95173   0.74812   0.08336
C          C       0.20361   0.25188   0.41664
C          C       0.04827   0.79639   0.41664
C          C       0.74812   0.95173   0.41664
C          C       0.91855   0.53694   0.25003
C          C       0.46306   0.38160   0.25003
C          C       0.61840   0.08145   0.25003
C          C       0.87028   0.58521   0.08331
C          C       0.71494   0.12972   0.08331
C          C       0.41479   0.28506   0.08331
C          C       0.58521   0.87028   0.41669
C          C       0.12972   0.71494   0.41669
C          C       0.28506   0.41479   0.41669
C          C       0.53694   0.91855   0.24997
C          C       0.38160   0.46306   0.24997
C          C       0.08145   0.61840   0.24997
N          N       0.45419   0.32178   0.08330
N          N       0.67822   0.13241   0.08330
N          N       0.86759   0.54581   0.08330
N          N       0.32178   0.45419   0.41670
N          N       0.13241   0.67822   0.41670
N          N       0.54581   0.86759   0.41670
N          N       0.12086   0.65511   0.24997
N          N       0.34489   0.46574   0.24997
N          N       0.53426   0.87914   0.24997
N          N       0.98845   0.78752   0.08337
N          N       0.79908   0.01155   0.08337
N          N       0.21248   0.20092   0.08337
N          N       0.78752   0.98845   0.41663
N          N       0.01155   0.79908   0.41663
N          N       0.20092   0.21248   0.41663
N          N       0.65511   0.12086   0.25003
N          N       0.46574   0.34489   0.25003
N          N       0.87914   0.53426   0.25003
C          C       0.17161   0.15912   0.08338
C          C       0.84088   0.01249   0.08338
C          C       0.98751   0.82839   0.08338
C          C       0.15912   0.17161   0.41662
C          C       0.01249   0.84088   0.41662
C          C       0.82839   0.98751   0.41662
C          C       0.83828   0.49245   0.25005
C          C       0.50755   0.34582   0.25005
C          C       0.65418   0.16172   0.25005
C          C       0.82579   0.50494   0.08329
C          C       0.67916   0.17421   0.08329
C          C       0.49506   0.32084   0.08329
C          C       0.50494   0.82579   0.41671
C          C       0.17421   0.67916   0.41671
C          C       0.32084   0.49506   0.41671
C          C       0.49245   0.83828   0.24995
C          C       0.34582   0.50755   0.24995
C          C       0.16172   0.65418   0.24995
C          C       0.13125   0.16165   0.08339
C          C       0.83835   0.96960   0.08339
C          C       0.03040   0.86875   0.08339
C          C       0.16165   0.13125   0.41661
C          C       0.96960   0.83835   0.41661
C          C       0.86875   0.03040   0.41661
C          C       0.79792   0.49498   0.25006
C          C       0.50502   0.30293   0.25006
C          C       0.69707   0.20208   0.25006
C          C       0.82832   0.46458   0.08327
C          C       0.63627   0.17168   0.08327
C          C       0.53542   0.36373   0.08327
C          C       0.46458   0.82832   0.41673
C          C       0.17168   0.63627   0.41673
C          C       0.36373   0.53542   0.41673
C          C       0.49498   0.79792   0.24994
C          C       0.30293   0.50502   0.24994
C          C       0.20208   0.69707   0.24994
C          C       0.08859   0.12231   0.08341
C          C       0.87769   0.96628   0.08341
C          C       0.03372   0.91141   0.08341
C          C       0.12231   0.08859   0.41659
C          C       0.96628   0.87769   0.41659
C          C       0.91141   0.03372   0.41659
C          C       0.75526   0.45564   0.25007
C          C       0.54436   0.29961   0.25007
C          C       0.70039   0.24474   0.25007
C          C       0.78898   0.42192   0.08326
C          C       0.63295   0.21102   0.08326
C          C       0.57808   0.36705   0.08326
C          C       0.42192   0.78898   0.41674
C          C       0.21102   0.63295   0.41674
C          C       0.36705   0.57808   0.41674
C          C       0.45564   0.75526   0.24993
C          C       0.29961   0.54436   0.24993
C          C       0.24474   0.70039   0.24993
C          C       0.08537   0.07926   0.08341
C          C       0.92074   0.00611   0.08341
C          C       0.99389   0.91463   0.08341
C          C       0.07926   0.08537   0.41659
C          C       0.00611   0.92074   0.41659
C          C       0.91463   0.99389   0.41659
C          C       0.75204   0.41259   0.25007
C          C       0.58741   0.33944   0.25007
C          C       0.66056   0.24796   0.25007
C          C       0.74593   0.41870   0.08326
C          C       0.67278   0.25407   0.08326
C          C       0.58130   0.32722   0.08326
C          C       0.41870   0.74593   0.41674
C          C       0.25407   0.67278   0.41674
C          C       0.32722   0.58130   0.41674
C          C       0.41259   0.75204   0.24993
C          C       0.33944   0.58741   0.24993
C          C       0.24796   0.66056   0.24993
C          C       0.12549   0.07635   0.08339
C          C       0.92365   0.04914   0.08339
C          C       0.95086   0.87451   0.08339
C          C       0.07635   0.12549   0.41661
C          C       0.04914   0.92365   0.41661
C          C       0.87451   0.95086   0.41661
C          C       0.79216   0.40968   0.25006
C          C       0.59032   0.38247   0.25006
C          C       0.61753   0.20784   0.25006
C          C       0.74302   0.45882   0.08327
C          C       0.71581   0.25698   0.08327
C          C       0.54118   0.28419   0.08327
C          C       0.45882   0.74302   0.41673
C          C       0.25698   0.71581   0.41673
C          C       0.28419   0.54118   0.41673
C          C       0.40968   0.79216   0.24994
C          C       0.38247   0.59032   0.24994
C          C       0.20784   0.61753   0.24994
C          C       0.16806   0.11566   0.08339
C          C       0.88434   0.05240   0.08339
C          C       0.94760   0.83194   0.08339
C          C       0.11566   0.16806   0.41662
C          C       0.05240   0.88434   0.41662
C          C       0.83194   0.94760   0.41662
C          C       0.83473   0.44899   0.25005
C          C       0.55101   0.38573   0.25005
C          C       0.61427   0.16527   0.25005
C          C       0.78233   0.50139   0.08328
C          C       0.71907   0.21767   0.08328
C          C       0.49861   0.28093   0.08328
C          C       0.50139   0.78233   0.41672
C          C       0.21767   0.71907   0.41672
C          C       0.28093   0.49861   0.41672
C          C       0.44899   0.83473   0.24995
C          C       0.38573   0.55101   0.24995
C          C       0.16527   0.61427   0.24995
C          C       0.04045   0.03752   0.08342
C          C       0.96248   0.00293   0.08342
C          C       0.99707   0.95955   0.08342
C          C       0.03752   0.04045   0.41658
C          C       0.00293   0.96248   0.41658
C          C       0.95955   0.99707   0.41658
C          C       0.70712   0.37085   0.25009
C          C       0.62915   0.33626   0.25009
C          C       0.66374   0.29288   0.25009
C          C       0.70419   0.37378   0.08325
C          C       0.66960   0.29581   0.08325
C          C       0.62622   0.33040   0.08325
C          C       0.37378   0.70419   0.41675
C          C       0.29581   0.66960   0.41675
C          C       0.33040   0.62622   0.41675
C          C       0.37085   0.70712   0.24991
C          C       0.33626   0.62915   0.24991
C          C       0.29288   0.66374   0.24991
N          N       0.03897   0.99695   0.08342
N          N       0.00305   0.04202   0.08342
N          N       0.95798   0.96103   0.08342
N          N       0.99695   0.03897   0.41658
N          N       0.04202   0.00305   0.41658
N          N       0.96103   0.95798   0.41658
N          N       0.70564   0.33028   0.25009
N          N       0.66972   0.37535   0.25009
N          N       0.62465   0.29436   0.25009
N          N       0.66362   0.37230   0.08324
N          N       0.70869   0.33638   0.08324
N          N       0.62770   0.29131   0.08324
N          N       0.37230   0.66362   0.41676
N          N       0.33638   0.70869   0.41676
N          N       0.29131   0.62770   0.41676
N          N       0.33028   0.70564   0.24991
N          N       0.37535   0.66972   0.24991
N          N       0.29436   0.62465   0.24991
H          H       0.25847   0.28608   0.08335
H          H       0.71392   0.97239   0.08335
H          H       0.02761   0.74153   0.08335
H          H       0.28608   0.25847   0.41664
H          H       0.97239   0.71392   0.41664
H          H       0.74153   0.02761   0.41664
H          H       0.92514   0.61941   0.25002
H          H       0.38059   0.30572   0.25002
H          H       0.69428   0.07486   0.25002
H          H       0.95275   0.59180   0.08331
H          H       0.63906   0.04725   0.08331
H          H       0.40820   0.36094   0.08331
H          H       0.59180   0.95275   0.41669
H          H       0.04725   0.63906   0.41669
H          H       0.36094   0.40820   0.41669
H          H       0.61941   0.92514   0.24998
H          H       0.30572   0.38059   0.24998
H          H       0.07486   0.69428   0.24998
H          H       0.25756   0.17379   0.08335
H          H       0.82621   0.08377   0.08335
H          H       0.91623   0.74244   0.08335
H          H       0.17379   0.25756   0.41664
H          H       0.08377   0.82621   0.41664
H          H       0.74244   0.91623   0.41664
H          H       0.92423   0.50712   0.25002
H          H       0.49288   0.41710   0.25002
H          H       0.58290   0.07577   0.25002
H          H       0.84046   0.59089   0.08331
H          H       0.75044   0.15954   0.08331
H          H       0.40911   0.24956   0.08331
H          H       0.59089   0.84046   0.41669
H          H       0.15954   0.75044   0.41669
H          H       0.24956   0.40911   0.41669
H          H       0.50712   0.92423   0.24998
H          H       0.41710   0.49288   0.24998
H          H       0.07577   0.58290   0.24998
H          H       0.13507   0.19600   0.08339
H          H       0.80400   0.93907   0.08339
H          H       0.06093   0.86493   0.08339
H          H       0.19600   0.13507   0.41661
H          H       0.93907   0.80400   0.41661
H          H       0.86493   0.06093   0.41661
H          H       0.80174   0.52933   0.25006
H          H       0.47067   0.27240   0.25006
H          H       0.72760   0.19826   0.25006
H          H       0.86267   0.46840   0.08328
H          H       0.60574   0.13733   0.08328
H          H       0.53160   0.39426   0.08328
H          H       0.46840   0.86267   0.41672
H          H       0.13733   0.60574   0.41672
H          H       0.39426   0.53160   0.41672
H          H       0.52933   0.80174   0.24994
H          H       0.27240   0.47067   0.24994
H          H       0.19826   0.72760   0.24994
H          H       0.05668   0.12367   0.08342
H          H       0.87633   0.93301   0.08342
H          H       0.06699   0.94332   0.08342
H          H       0.12367   0.05668   0.41658
H          H       0.93301   0.87633   0.41658
H          H       0.94332   0.06699   0.41658
H          H       0.72335   0.45700   0.25008
H          H       0.54300   0.26634   0.25008
H          H       0.73366   0.27665   0.25008
H          H       0.79034   0.39001   0.08325
H          H       0.59968   0.20966   0.08325
H          H       0.60999   0.40032   0.08325
H          H       0.39001   0.79034   0.41675
H          H       0.20966   0.59968   0.41675
H          H       0.40032   0.60999   0.41675
H          H       0.45700   0.72335   0.24992
H          H       0.26634   0.54300   0.24992
H          H       0.27665   0.73366   0.24992
H          H       0.12177   0.04202   0.08339
H          H       0.95798   0.07975   0.08339
H          H       0.92025   0.87823   0.08339
H          H       0.04202   0.12177   0.41661
H          H       0.07975   0.95798   0.41661
H          H       0.87823   0.92025   0.41661
H          H       0.78844   0.37535   0.25006
H          H       0.62465   0.41308   0.25006
H          H       0.58692   0.21156   0.25006
H          H       0.70869   0.45510   0.08327
H          H       0.74642   0.29131   0.08327
H          H       0.54490   0.25358   0.08327
H          H       0.45510   0.70869   0.41673
H          H       0.29131   0.74642   0.41673
H          H       0.25358   0.54490   0.41673
H          H       0.37535   0.78844   0.24994
H          H       0.41308   0.62465   0.24994
H          H       0.21156   0.58692   0.24994
H          H       0.19912   0.11272   0.08338
H          H       0.88728   0.08640   0.08338
H          H       0.91360   0.80088   0.08338
H          H       0.11272   0.19912   0.41663
H          H       0.08640   0.88728   0.41663
H          H       0.80088   0.91360   0.41663
H          H       0.86579   0.44605   0.25004
H          H       0.55395   0.41973   0.25004
H          H       0.58027   0.13421   0.25004
H          H       0.77939   0.53245   0.08329
H          H       0.75307   0.22061   0.08329
H          H       0.46755   0.24693   0.08329
H          H       0.53245   0.77939   0.41671
H          H       0.22061   0.75307   0.41671
H          H       0.24693   0.46755   0.41671
H          H       0.44605   0.86579   0.24996
H          H       0.41973   0.55395   0.24996
H          H       0.13421   0.58027   0.24996
N          N       0.33333   0.24709   0.08334
N          N       0.75291   0.08624   0.08334
N          N       0.91376   0.66667   0.08334
N          N       0.24709   0.33333   0.41667
N          N       0.08624   0.75291   0.41667
N          N       0.66667   0.91376   0.41667
N          N       1.00000   0.58042   0.25000
N          N       0.41958   0.41957   0.25000
N          N       0.58043   0.00000   0.25000
C          C       0.33333   0.33026   0.08334
C          C       0.66974   0.00307   0.08334
C          C       0.99693   0.66667   0.08334
C          C       0.33026   0.33333   0.41667
C          C       0.00307   0.66974   0.41667
C          C       0.66667   0.99693   0.41667
C          C       1.00000   0.66359   0.25000
C          C       0.33641   0.33640   0.25000
C          C       0.66360   0.00000   0.25000
H          H       0.33333   0.36289   0.08334
H          H       0.63711   0.97044   0.08334
H          H       0.02956   0.66667   0.08334
H          H       0.36289   0.33333   0.41667
H          H       0.97044   0.63711   0.41667
H          H       0.66667   0.02956   0.41667
H          H       1.00000   0.69622   0.25000
H          H       0.30378   0.30377   0.25000
H          H       0.69623   0.00000   0.25000
C          C       0.29236   0.28879   0.58335
C          C       0.71121   0.00357   0.58335
C          C       0.99643   0.70764   0.58335
C          C       0.28879   0.29236   0.91665
C          C       0.00357   0.71121   0.91665
C          C       0.70764   0.99643   0.91665
C          C       0.95903   0.62212   0.75001
C          C       0.37788   0.33690   0.75001
C          C       0.66310   0.04097   0.75001
C          C       0.95546   0.62569   0.58332
C          C       0.67024   0.04454   0.58332
C          C       0.37431   0.32976   0.58332
C          C       0.62569   0.95546   0.91668
C          C       0.04454   0.67024   0.91668
C          C       0.32976   0.37431   0.91668
C          C       0.62212   0.95903   0.74999
C          C       0.33690   0.37788   0.74999
C          C       0.04097   0.66310   0.74999
C          C       0.29398   0.24801   0.58335
C          C       0.75199   0.04597   0.58335
C          C       0.95403   0.70602   0.58335
C          C       0.24801   0.29398   0.91665
C          C       0.04597   0.75199   0.91665
C          C       0.70602   0.95403   0.91665
C          C       0.96065   0.58134   0.75001
C          C       0.41866   0.37930   0.75001
C          C       0.62070   0.03935   0.75001
C          C       0.91468   0.62731   0.58332
C          C       0.71264   0.08532   0.58332
C          C       0.37269   0.28736   0.58332
C          C       0.62731   0.91468   0.91668
C          C       0.08532   0.71264   0.91668
C          C       0.28736   0.37269   0.91668
C          C       0.58134   0.96065   0.74999
C          C       0.37930   0.41866   0.74999
C          C       0.03935   0.62070   0.74999
C          C       0.25188   0.20361   0.58336
C          C       0.79639   0.04827   0.58336
C          C       0.95173   0.74812   0.58336
C          C       0.20361   0.25188   0.91664
C          C       0.04827   0.79639   0.91664
C          C       0.74812   0.95173   0.91664
C          C       0.91855   0.53694   0.75003
C          C       0.46306   0.38160   0.75003
C          C       0.61840   0.08145   0.75003
C          C       0.87028   0.58521   0.58331
C          C       0.71494   0.12972   0.58331
C          C       0.41479   0.28506   0.58331
C          C       0.58521   0.87028   0.91669
C          C       0.12972   0.71494   0.91669
C          C       0.28506   0.41479   0.91669
C          C       0.53694   0.91855   0.74997
C          C       0.38160   0.46306   0.74997
C          C       0.08145   0.61840   0.74997
N          N       0.45419   0.32178   0.58330
N          N       0.67822   0.13241   0.58330
N          N       0.86759   0.54581   0.58330
N          N       0.32178   0.45419   0.91670
N          N       0.13241   0.67822   0.91670
N          N       0.54581   0.86759   0.91670
N          N       0.12086   0.65511   0.74997
N          N       0.34489   0.46574   0.74997
N          N       0.53426   0.87914   0.74997
N          N       0.98845   0.78752   0.58337
N          N       0.79908   0.01155   0.58337
N          N       0.21248   0.20092   0.58337
N          N       0.78752   0.98845   0.91663
N          N       0.01155   0.79908   0.91663
N          N       0.20092   0.21248   0.91663
N          N       0.65511   0.12086   0.75003
N          N       0.46574   0.34489   0.75003
N          N       0.87914   0.53426   0.75003
C          C       0.17161   0.15912   0.58338
C          C       0.84088   0.01249   0.58338
C          C       0.98751   0.82839   0.58338
C          C       0.15912   0.17161   0.91662
C          C       0.01249   0.84088   0.91662
C          C       0.82839   0.98751   0.91662
C          C       0.83828   0.49245   0.75005
C          C       0.50755   0.34582   0.75005
C          C       0.65418   0.16172   0.75005
C          C       0.82579   0.50494   0.58329
C          C       0.67916   0.17421   0.58329
C          C       0.49506   0.32084   0.58329
C          C       0.50494   0.82579   0.91671
C          C       0.17421   0.67916   0.91671
C          C       0.32084   0.49506   0.91671
C          C       0.49245   0.83828   0.74995
C          C       0.34582   0.50755   0.74995
C          C       0.16172   0.65418   0.74995
C          C       0.13125   0.16165   0.58339
C          C       0.83835   0.96960   0.58339
C          C       0.03040   0.86875   0.58339
C          C       0.16165   0.13125   0.91661
C          C       0.96960   0.83835   0.91661
C          C       0.86875   0.03040   0.91661
C          C       0.79792   0.49498   0.75006
C          C       0.50502   0.30293   0.75006
C          C       0.69707   0.20208   0.75006
C          C       0.82832   0.46458   0.58327
C          C       0.63627   0.17168   0.58327
C          C       0.53542   0.36373   0.58327
C          C       0.46458   0.82832   0.91673
C          C       0.17168   0.63627   0.91673
C          C       0.36373   0.53542   0.91673
C          C       0.49498   0.79792   0.74994
C          C       0.30293   0.50502   0.74994
C          C       0.20208   0.69707   0.74994
C          C       0.08859   0.12231   0.58341
C          C       0.87769   0.96628   0.58341
C          C       0.03372   0.91141   0.58341
C          C       0.12231   0.08859   0.91659
C          C       0.96628   0.87769   0.91659
C          C       0.91141   0.03372   0.91659
C          C       0.75526   0.45564   0.75007
C          C       0.54436   0.29961   0.75007
C          C       0.70039   0.24474   0.75007
C          C       0.78898   0.42192   0.58326
C          C       0.63295   0.21102   0.58326
C          C       0.57808   0.36705   0.58326
C          C       0.42192   0.78898   0.91674
C          C       0.21102   0.63295   0.91674
C          C       0.36705   0.57808   0.91674
C          C       0.45564   0.75526   0.74993
C          C       0.29961   0.54436   0.74993
C          C       0.24474   0.70039   0.74993
C          C       0.08537   0.07926   0.58341
C          C       0.92074   0.00611   0.58341
C          C       0.99389   0.91463   0.58341
C          C       0.07926   0.08537   0.91659
C          C       0.00611   0.92074   0.91659
C          C       0.91463   0.99389   0.91659
C          C       0.75204   0.41259   0.75007
C          C       0.58741   0.33944   0.75007
C          C       0.66056   0.24796   0.75007
C          C       0.74593   0.41870   0.58326
C          C       0.67278   0.25407   0.58326
C          C       0.58130   0.32722   0.58326
C          C       0.41870   0.74593   0.91674
C          C       0.25407   0.67278   0.91674
C          C       0.32722   0.58130   0.91674
C          C       0.41259   0.75204   0.74993
C          C       0.33944   0.58741   0.74993
C          C       0.24796   0.66056   0.74993
C          C       0.12549   0.07635   0.58339
C          C       0.92365   0.04914   0.58339
C          C       0.95086   0.87451   0.58339
C          C       0.07635   0.12549   0.91661
C          C       0.04914   0.92365   0.91661
C          C       0.87451   0.95086   0.91661
C          C       0.79216   0.40968   0.75006
C          C       0.59032   0.38247   0.75006
C          C       0.61753   0.20784   0.75006
C          C       0.74302   0.45882   0.58327
C          C       0.71581   0.25698   0.58327
C          C       0.54118   0.28419   0.58327
C          C       0.45882   0.74302   0.91673
C          C       0.25698   0.71581   0.91673
C          C       0.28419   0.54118   0.91673
C          C       0.40968   0.79216   0.74994
C          C       0.38247   0.59032   0.74994
C          C       0.20784   0.61753   0.74994
C          C       0.16806   0.11566   0.58339
C          C       0.88434   0.05240   0.58339
C          C       0.94760   0.83194   0.58339
C          C       0.11566   0.16806   0.91661
C          C       0.05240   0.88434   0.91661
C          C       0.83194   0.94760   0.91661
C          C       0.83473   0.44899   0.75005
C          C       0.55101   0.38573   0.75005
C          C       0.61427   0.16527   0.75005
C          C       0.78233   0.50139   0.58328
C          C       0.71907   0.21767   0.58328
C          C       0.49861   0.28093   0.58328
C          C       0.50139   0.78233   0.91672
C          C       0.21767   0.71907   0.91672
C          C       0.28093   0.49861   0.91672
C          C       0.44899   0.83473   0.74995
C          C       0.38573   0.55101   0.74995
C          C       0.16527   0.61427   0.74995
C          C       0.04045   0.03752   0.58342
C          C       0.96248   0.00293   0.58342
C          C       0.99707   0.95955   0.58342
C          C       0.03752   0.04045   0.91658
C          C       0.00293   0.96248   0.91658
C          C       0.95955   0.99707   0.91658
C          C       0.70712   0.37085   0.75009
C          C       0.62915   0.33626   0.75009
C          C       0.66374   0.29288   0.75009
C          C       0.70419   0.37378   0.58325
C          C       0.66960   0.29581   0.58325
C          C       0.62622   0.33040   0.58325
C          C       0.37378   0.70419   0.91675
C          C       0.29581   0.66960   0.91675
C          C       0.33040   0.62622   0.91675
C          C       0.37085   0.70712   0.74991
C          C       0.33626   0.62915   0.74991
C          C       0.29288   0.66374   0.74991
N          N       0.03897   0.99695   0.58342
N          N       0.00305   0.04202   0.58342
N          N       0.95798   0.96103   0.58342
N          N       0.99695   0.03897   0.91657
N          N       0.04202   0.00305   0.91657
N          N       0.96103   0.95798   0.91657
N          N       0.70564   0.33028   0.75009
N          N       0.66972   0.37535   0.75009
N          N       0.62465   0.29436   0.75009
N          N       0.66362   0.37230   0.58324
N          N       0.70869   0.33638   0.58324
N          N       0.62770   0.29131   0.58324
N          N       0.37230   0.66362   0.91676
N          N       0.33638   0.70869   0.91676
N          N       0.29131   0.62770   0.91676
N          N       0.33028   0.70564   0.74991
N          N       0.37535   0.66972   0.74991
N          N       0.29436   0.62465   0.74991
H          H       0.25847   0.28608   0.58336
H          H       0.71392   0.97239   0.58336
H          H       0.02761   0.74153   0.58336
H          H       0.28608   0.25847   0.91665
H          H       0.97239   0.71392   0.91665
H          H       0.74153   0.02761   0.91665
H          H       0.92514   0.61941   0.75002
H          H       0.38059   0.30572   0.75002
H          H       0.69428   0.07486   0.75002
H          H       0.95275   0.59180   0.58331
H          H       0.63906   0.04725   0.58331
H          H       0.40820   0.36094   0.58331
H          H       0.59180   0.95275   0.91669
H          H       0.04725   0.63906   0.91669
H          H       0.36094   0.40820   0.91669
H          H       0.61941   0.92514   0.74998
H          H       0.30572   0.38059   0.74998
H          H       0.07486   0.69428   0.74998
H          H       0.25756   0.17379   0.58336
H          H       0.82621   0.08377   0.58336
H          H       0.91623   0.74244   0.58336
H          H       0.17379   0.25756   0.91665
H          H       0.08377   0.82621   0.91665
H          H       0.74244   0.91623   0.91665
H          H       0.92423   0.50712   0.75002
H          H       0.49288   0.41710   0.75002
H          H       0.58290   0.07577   0.75002
H          H       0.84046   0.59089   0.58331
H          H       0.75044   0.15954   0.58331
H          H       0.40911   0.24956   0.58331
H          H       0.59089   0.84046   0.91669
H          H       0.15954   0.75044   0.91669
H          H       0.24956   0.40911   0.91669
H          H       0.50712   0.92423   0.74998
H          H       0.41710   0.49288   0.74998
H          H       0.07577   0.58290   0.74998
H          H       0.13507   0.19600   0.58339
H          H       0.80400   0.93907   0.58339
H          H       0.06093   0.86493   0.58339
H          H       0.19600   0.13507   0.91661
H          H       0.93907   0.80400   0.91661
H          H       0.86493   0.06093   0.91661
H          H       0.80174   0.52933   0.75006
H          H       0.47067   0.27240   0.75006
H          H       0.72760   0.19826   0.75006
H          H       0.86267   0.46840   0.58328
H          H       0.60574   0.13733   0.58328
H          H       0.53160   0.39426   0.58328
H          H       0.46840   0.86267   0.91672
H          H       0.13733   0.60574   0.91672
H          H       0.39426   0.53160   0.91672
H          H       0.52933   0.80174   0.74994
H          H       0.27240   0.47067   0.74994
H          H       0.19826   0.72760   0.74994
H          H       0.05668   0.12367   0.58342
H          H       0.87633   0.93301   0.58342
H          H       0.06699   0.94332   0.58342
H          H       0.12367   0.05668   0.91658
H          H       0.93301   0.87633   0.91658
H          H       0.94332   0.06699   0.91658
H          H       0.72335   0.45700   0.75008
H          H       0.54300   0.26634   0.75008
H          H       0.73366   0.27665   0.75008
H          H       0.79034   0.39001   0.58325
H          H       0.59968   0.20966   0.58325
H          H       0.60999   0.40032   0.58325
H          H       0.39001   0.79034   0.91675
H          H       0.20966   0.59968   0.91675
H          H       0.40032   0.60999   0.91675
H          H       0.45700   0.72335   0.74992
H          H       0.26634   0.54300   0.74992
H          H       0.27665   0.73366   0.74992
H          H       0.12177   0.04202   0.58339
H          H       0.95798   0.07975   0.58339
H          H       0.92025   0.87823   0.58339
H          H       0.04202   0.12177   0.91661
H          H       0.07975   0.95798   0.91661
H          H       0.87823   0.92025   0.91661
H          H       0.78844   0.37535   0.75006
H          H       0.62465   0.41308   0.75006
H          H       0.58692   0.21156   0.75006
H          H       0.70869   0.45510   0.58327
H          H       0.74642   0.29131   0.58327
H          H       0.54490   0.25358   0.58327
H          H       0.45510   0.70869   0.91673
H          H       0.29131   0.74642   0.91673
H          H       0.25358   0.54490   0.91673
H          H       0.37535   0.78844   0.74994
H          H       0.41308   0.62465   0.74994
H          H       0.21156   0.58692   0.74994
H          H       0.19912   0.11272   0.58337
H          H       0.88728   0.08640   0.58337
H          H       0.91360   0.80088   0.58337
H          H       0.11272   0.19912   0.91663
H          H       0.08640   0.88728   0.91663
H          H       0.80088   0.91360   0.91663
H          H       0.86579   0.44605   0.75004
H          H       0.55395   0.41973   0.75004
H          H       0.58027   0.13421   0.75004
H          H       0.77939   0.53245   0.58329
H          H       0.75307   0.22061   0.58329
H          H       0.46755   0.24693   0.58329
H          H       0.53245   0.77939   0.91671
H          H       0.22061   0.75307   0.91671
H          H       0.24693   0.46755   0.91671
H          H       0.44605   0.86579   0.74996
H          H       0.41973   0.55395   0.74996
H          H       0.13421   0.58027   0.74996
N          N       0.33333   0.24709   0.58334
N          N       0.75291   0.08624   0.58334
N          N       0.91376   0.66667   0.58334
N          N       0.24709   0.33333   0.91666
N          N       0.08624   0.75291   0.91666
N          N       0.66667   0.91376   0.91666
N          N       1.00000   0.58042   0.75000
N          N       0.41958   0.41957   0.75000
N          N       0.58043   0.00000   0.75000
C          C       0.33333   0.33026   0.58334
C          C       0.66974   0.00307   0.58334
C          C       0.99693   0.66667   0.58334
C          C       0.33026   0.33333   0.91666
C          C       0.00307   0.66974   0.91666
C          C       0.66667   0.99693   0.91666
C          C       1.00000   0.66359   0.75000
C          C       0.33641   0.33640   0.75000
C          C       0.66360   0.00000   0.75000
H          H       0.33333   0.36289   0.58334
H          H       0.63711   0.97044   0.58334
H          H       0.02956   0.66667   0.58334
H          H       0.36289   0.33333   0.91666
H          H       0.97044   0.63711   0.91666
H          H       0.66667   0.02956   0.91666
H          H       1.00000   0.69622   0.75000
H          H       0.30378   0.30377   0.75000
H          H       0.69623   0.00000   0.75000
