data_crystal

_cell_length_a    18.65950
_cell_length_b    38.36360
_cell_length_c    6.90860
_cell_angle_alpha 90.00000
_cell_angle_beta  90.00000
_cell_angle_gamma 90.00000

_space_group_name_Hall 'P 1'
_space_group_name_H-M_alt 'P 1'

loop_
_symmetry_equiv_pos_as_xyz
 'x,y,z'

loop_
_atom_site_label
_atom_site_type_symbol
_atom_site_fract_x
_atom_site_fract_y
_atom_site_fract_z
C          C       0.93171   0.07841   0.25000
C          C       0.06829   0.92159   0.25000
C          C       0.06829   0.07841   0.25000
C          C       0.93171   0.92159   0.25000
C          C       0.43171   0.57841   0.25000
C          C       0.56829   0.42159   0.25000
C          C       0.56829   0.57841   0.25000
C          C       0.43171   0.42159   0.25000
C          C       0.93403   0.03954   0.25000
C          C       0.06597   0.96046   0.25000
C          C       0.06597   0.03954   0.25000
C          C       0.93403   0.96046   0.25000
C          C       0.43403   0.53954   0.25000
C          C       0.56597   0.46046   0.25000
C          C       0.56597   0.53954   0.25000
C          C       0.43403   0.46046   0.25000
C          C       0.87157   0.01832   0.25000
C          C       0.12843   0.98168   0.25000
C          C       0.12843   0.01832   0.25000
C          C       0.87157   0.98168   0.25000
C          C       0.37157   0.51832   0.25000
C          C       0.62843   0.48168   0.25000
C          C       0.62843   0.51832   0.25000
C          C       0.37157   0.48168   0.25000
C          C       0.86852   0.89673   0.25000
C          C       0.13148   0.10327   0.25000
C          C       0.13148   0.89673   0.25000
C          C       0.86852   0.10327   0.25000
C          C       0.36852   0.39673   0.25000
C          C       0.63148   0.60327   0.25000
C          C       0.63148   0.39673   0.25000
C          C       0.36852   0.60327   0.25000
C          C       0.79315   0.90629   0.25000
C          C       0.20685   0.09371   0.25000
C          C       0.20685   0.90629   0.25000
C          C       0.79315   0.09371   0.25000
C          C       0.29315   0.40629   0.25000
C          C       0.70685   0.59371   0.25000
C          C       0.70685   0.40629   0.25000
C          C       0.29315   0.59371   0.25000
C          C       0.73696   0.88186   0.25000
C          C       0.26304   0.11814   0.25000
C          C       0.26304   0.88186   0.25000
C          C       0.73696   0.11814   0.25000
C          C       0.23696   0.38186   0.25000
C          C       0.76304   0.61814   0.25000
C          C       0.76304   0.38186   0.25000
C          C       0.23696   0.61814   0.25000
C          C       0.74778   0.84435   0.25000
C          C       0.25222   0.15565   0.25000
C          C       0.25222   0.84435   0.25000
C          C       0.74778   0.15565   0.25000
C          C       0.24778   0.34435   0.25000
C          C       0.75222   0.65565   0.25000
C          C       0.75222   0.34435   0.25000
C          C       0.24778   0.65565   0.25000
C          C       0.82049   0.83337   0.25000
C          C       0.17951   0.16663   0.25000
C          C       0.17951   0.83337   0.25000
C          C       0.82049   0.16663   0.25000
C          C       0.32049   0.33337   0.25000
C          C       0.67951   0.66663   0.25000
C          C       0.67951   0.33337   0.25000
C          C       0.32049   0.66663   0.25000
C          C       0.87713   0.85776   0.25000
C          C       0.12287   0.14224   0.25000
C          C       0.12287   0.85776   0.25000
C          C       0.87713   0.14224   0.25000
C          C       0.37713   0.35776   0.25000
C          C       0.62287   0.64224   0.25000
C          C       0.62287   0.35776   0.25000
C          C       0.37713   0.64224   0.25000
N          N       0.69002   0.81898   0.25000
N          N       0.30998   0.18102   0.25000
N          N       0.30998   0.81898   0.25000
N          N       0.69002   0.18102   0.25000
N          N       0.19002   0.31898   0.25000
N          N       0.80998   0.68102   0.25000
N          N       0.80998   0.31898   0.25000
N          N       0.19002   0.68102   0.25000
C          C       0.62195   0.82859   0.25000
C          C       0.37805   0.17141   0.25000
C          C       0.37805   0.82859   0.25000
C          C       0.62195   0.17141   0.25000
C          C       0.12195   0.32859   0.25000
C          C       0.87805   0.67141   0.25000
C          C       0.87805   0.32859   0.25000
C          C       0.12195   0.67141   0.25000
C          C       0.56326   0.80246   0.25000
C          C       0.43674   0.19754   0.25000
C          C       0.43674   0.80246   0.25000
C          C       0.56326   0.19754   0.25000
C          C       0.06326   0.30246   0.25000
C          C       0.93674   0.69754   0.25000
C          C       0.93674   0.30246   0.25000
C          C       0.06326   0.69754   0.25000
C          C       0.43501   0.76450   0.25000
C          C       0.56499   0.23550   0.25000
C          C       0.56499   0.76450   0.25000
C          C       0.43501   0.23550   0.25000
C          C       0.93501   0.26450   0.25000
C          C       0.06499   0.73550   0.25000
C          C       0.06499   0.26450   0.25000
C          C       0.93501   0.73550   0.25000
H          H       0.81678   0.02821   0.25000
H          H       0.18322   0.97179   0.25000
H          H       0.18322   0.02821   0.25000
H          H       0.81678   0.97179   0.25000
H          H       0.31678   0.52821   0.25000
H          H       0.68322   0.47179   0.25000
H          H       0.68322   0.52821   0.25000
H          H       0.31678   0.47179   0.25000
H          H       0.76982   0.93316   0.25000
H          H       0.23018   0.06684   0.25000
H          H       0.23018   0.93316   0.25000
H          H       0.76982   0.06684   0.25000
H          H       0.26982   0.43316   0.25000
H          H       0.73018   0.56684   0.25000
H          H       0.73018   0.43316   0.25000
H          H       0.26982   0.56684   0.25000
H          H       0.83307   0.80428   0.25000
H          H       0.16693   0.19572   0.25000
H          H       0.16693   0.80428   0.25000
H          H       0.83307   0.19572   0.25000
H          H       0.33307   0.30428   0.25000
H          H       0.66693   0.69572   0.25000
H          H       0.66693   0.30428   0.25000
H          H       0.33307   0.69572   0.25000
H          H       0.92972   0.84390   0.25000
H          H       0.07028   0.15610   0.25000
H          H       0.07028   0.84390   0.25000
H          H       0.92972   0.15610   0.25000
H          H       0.42972   0.34390   0.25000
H          H       0.57028   0.65610   0.25000
H          H       0.57028   0.34390   0.25000
H          H       0.42972   0.65610   0.25000
H          H       0.31810   0.89337   0.25000
H          H       0.68190   0.10663   0.25000
H          H       0.68190   0.89337   0.25000
H          H       0.31810   0.10663   0.25000
H          H       0.81810   0.39337   0.25000
H          H       0.18190   0.60663   0.25000
H          H       0.18190   0.39337   0.25000
H          H       0.81810   0.60663   0.25000
H          H       0.60363   0.85693   0.25000
H          H       0.39637   0.14307   0.25000
H          H       0.39637   0.85693   0.25000
H          H       0.60363   0.14307   0.25000
H          H       0.10363   0.35693   0.25000
H          H       0.89637   0.64307   0.25000
H          H       0.89637   0.35693   0.25000
H          H       0.10363   0.64307   0.25000
H          H       0.38263   0.75036   0.25000
H          H       0.61737   0.24964   0.25000
H          H       0.61737   0.75036   0.25000
H          H       0.38263   0.24964   0.25000
H          H       0.88263   0.25036   0.25000
H          H       0.11737   0.74964   0.25000
H          H       0.11737   0.25036   0.25000
H          H       0.88263   0.74964   0.25000
C          C       0.00000   0.01948   0.25000
C          C       0.00000   0.98052   0.25000
C          C       0.50000   0.51948   0.25000
C          C       0.50000   0.48052   0.25000
C          C       0.00000   0.09440   0.25000
C          C       0.00000   0.90560   0.25000
C          C       0.50000   0.59440   0.25000
C          C       0.50000   0.40560   0.25000
H          H       0.00000   0.12351   0.25000
H          H       0.00000   0.87649   0.25000
H          H       0.50000   0.62351   0.25000
H          H       0.50000   0.37649   0.25000
N          N       0.00000   0.32038   0.25000
N          N       0.00000   0.67962   0.25000
N          N       0.50000   0.82038   0.25000
N          N       0.50000   0.17962   0.25000
C          C       0.00000   0.24536   0.25000
C          C       0.00000   0.75464   0.25000
C          C       0.50000   0.74536   0.25000
C          C       0.50000   0.25464   0.25000
H          H       0.00000   0.21561   0.25000
H          H       0.00000   0.78439   0.25000
H          H       0.50000   0.71561   0.25000
H          H       0.50000   0.28439   0.25000
C          C       0.93171   0.07841   0.75000
C          C       0.06829   0.92159   0.75000
C          C       0.06829   0.07841   0.75000
C          C       0.93171   0.92159   0.75000
C          C       0.43171   0.57841   0.75000
C          C       0.56829   0.42159   0.75000
C          C       0.56829   0.57841   0.75000
C          C       0.43171   0.42159   0.75000
C          C       0.93403   0.03954   0.75000
C          C       0.06597   0.96046   0.75000
C          C       0.06597   0.03954   0.75000
C          C       0.93403   0.96046   0.75000
C          C       0.43403   0.53954   0.75000
C          C       0.56597   0.46046   0.75000
C          C       0.56597   0.53954   0.75000
C          C       0.43403   0.46046   0.75000
C          C       0.87157   0.01832   0.75000
C          C       0.12843   0.98168   0.75000
C          C       0.12843   0.01832   0.75000
C          C       0.87157   0.98168   0.75000
C          C       0.37157   0.51832   0.75000
C          C       0.62843   0.48168   0.75000
C          C       0.62843   0.51832   0.75000
C          C       0.37157   0.48168   0.75000
C          C       0.86852   0.89673   0.75000
C          C       0.13148   0.10327   0.75000
C          C       0.13148   0.89673   0.75000
C          C       0.86852   0.10327   0.75000
C          C       0.36852   0.39673   0.75000
C          C       0.63148   0.60327   0.75000
C          C       0.63148   0.39673   0.75000
C          C       0.36852   0.60327   0.75000
C          C       0.79315   0.90629   0.75000
C          C       0.20685   0.09371   0.75000
C          C       0.20685   0.90629   0.75000
C          C       0.79315   0.09371   0.75000
C          C       0.29315   0.40629   0.75000
C          C       0.70685   0.59371   0.75000
C          C       0.70685   0.40629   0.75000
C          C       0.29315   0.59371   0.75000
C          C       0.73696   0.88186   0.75000
C          C       0.26304   0.11814   0.75000
C          C       0.26304   0.88186   0.75000
C          C       0.73696   0.11814   0.75000
C          C       0.23696   0.38186   0.75000
C          C       0.76304   0.61814   0.75000
C          C       0.76304   0.38186   0.75000
C          C       0.23696   0.61814   0.75000
C          C       0.74778   0.84435   0.75000
C          C       0.25222   0.15565   0.75000
C          C       0.25222   0.84435   0.75000
C          C       0.74778   0.15565   0.75000
C          C       0.24778   0.34435   0.75000
C          C       0.75222   0.65565   0.75000
C          C       0.75222   0.34435   0.75000
C          C       0.24778   0.65565   0.75000
C          C       0.82049   0.83337   0.75000
C          C       0.17951   0.16663   0.75000
C          C       0.17951   0.83337   0.75000
C          C       0.82049   0.16663   0.75000
C          C       0.32049   0.33337   0.75000
C          C       0.67951   0.66663   0.75000
C          C       0.67951   0.33337   0.75000
C          C       0.32049   0.66663   0.75000
C          C       0.87713   0.85776   0.75000
C          C       0.12287   0.14224   0.75000
C          C       0.12287   0.85776   0.75000
C          C       0.87713   0.14224   0.75000
C          C       0.37713   0.35776   0.75000
C          C       0.62287   0.64224   0.75000
C          C       0.62287   0.35776   0.75000
C          C       0.37713   0.64224   0.75000
N          N       0.69002   0.81898   0.75000
N          N       0.30998   0.18102   0.75000
N          N       0.30998   0.81898   0.75000
N          N       0.69002   0.18102   0.75000
N          N       0.19002   0.31898   0.75000
N          N       0.80998   0.68102   0.75000
N          N       0.80998   0.31898   0.75000
N          N       0.19002   0.68102   0.75000
C          C       0.62195   0.82859   0.75000
C          C       0.37805   0.17141   0.75000
C          C       0.37805   0.82859   0.75000
C          C       0.62195   0.17141   0.75000
C          C       0.12195   0.32859   0.75000
C          C       0.87805   0.67141   0.75000
C          C       0.87805   0.32859   0.75000
C          C       0.12195   0.67141   0.75000
C          C       0.56326   0.80246   0.75000
C          C       0.43674   0.19754   0.75000
C          C       0.43674   0.80246   0.75000
C          C       0.56326   0.19754   0.75000
C          C       0.06326   0.30246   0.75000
C          C       0.93674   0.69754   0.75000
C          C       0.93674   0.30246   0.75000
C          C       0.06326   0.69754   0.75000
C          C       0.43501   0.76450   0.75000
C          C       0.56499   0.23550   0.75000
C          C       0.56499   0.76450   0.75000
C          C       0.43501   0.23550   0.75000
C          C       0.93501   0.26450   0.75000
C          C       0.06499   0.73550   0.75000
C          C       0.06499   0.26450   0.75000
C          C       0.93501   0.73550   0.75000
H          H       0.81678   0.02821   0.75000
H          H       0.18322   0.97179   0.75000
H          H       0.18322   0.02821   0.75000
H          H       0.81678   0.97179   0.75000
H          H       0.31678   0.52821   0.75000
H          H       0.68322   0.47179   0.75000
H          H       0.68322   0.52821   0.75000
H          H       0.31678   0.47179   0.75000
H          H       0.76982   0.93316   0.75000
H          H       0.23018   0.06684   0.75000
H          H       0.23018   0.93316   0.75000
H          H       0.76982   0.06684   0.75000
H          H       0.26982   0.43316   0.75000
H          H       0.73018   0.56684   0.75000
H          H       0.73018   0.43316   0.75000
H          H       0.26982   0.56684   0.75000
H          H       0.83307   0.80428   0.75000
H          H       0.16693   0.19572   0.75000
H          H       0.16693   0.80428   0.75000
H          H       0.83307   0.19572   0.75000
H          H       0.33307   0.30428   0.75000
H          H       0.66693   0.69572   0.75000
H          H       0.66693   0.30428   0.75000
H          H       0.33307   0.69572   0.75000
H          H       0.92972   0.84390   0.75000
H          H       0.07028   0.15610   0.75000
H          H       0.07028   0.84390   0.75000
H          H       0.92972   0.15610   0.75000
H          H       0.42972   0.34390   0.75000
H          H       0.57028   0.65610   0.75000
H          H       0.57028   0.34390   0.75000
H          H       0.42972   0.65610   0.75000
H          H       0.31810   0.89337   0.75000
H          H       0.68190   0.10663   0.75000
H          H       0.68190   0.89337   0.75000
H          H       0.31810   0.10663   0.75000
H          H       0.81810   0.39337   0.75000
H          H       0.18190   0.60663   0.75000
H          H       0.18190   0.39337   0.75000
H          H       0.81810   0.60663   0.75000
H          H       0.60363   0.85693   0.75000
H          H       0.39637   0.14307   0.75000
H          H       0.39637   0.85693   0.75000
H          H       0.60363   0.14307   0.75000
H          H       0.10363   0.35693   0.75000
H          H       0.89637   0.64307   0.75000
H          H       0.89637   0.35693   0.75000
H          H       0.10363   0.64307   0.75000
H          H       0.38263   0.75036   0.75000
H          H       0.61737   0.24964   0.75000
H          H       0.61737   0.75036   0.75000
H          H       0.38263   0.24964   0.75000
H          H       0.88263   0.25036   0.75000
H          H       0.11737   0.74964   0.75000
H          H       0.11737   0.25036   0.75000
H          H       0.88263   0.74964   0.75000
C          C       0.00000   0.01948   0.75000
C          C       0.00000   0.98052   0.75000
C          C       0.50000   0.51948   0.75000
C          C       0.50000   0.48052   0.75000
C          C       0.00000   0.09440   0.75000
C          C       0.00000   0.90560   0.75000
C          C       0.50000   0.59440   0.75000
C          C       0.50000   0.40560   0.75000
H          H       0.00000   0.12351   0.75000
H          H       0.00000   0.87649   0.75000
H          H       0.50000   0.62351   0.75000
H          H       0.50000   0.37649   0.75000
N          N       0.00000   0.32038   0.75000
N          N       0.00000   0.67962   0.75000
N          N       0.50000   0.82038   0.75000
N          N       0.50000   0.17962   0.75000
C          C       0.00000   0.24536   0.75000
C          C       0.00000   0.75464   0.75000
C          C       0.50000   0.74536   0.75000
C          C       0.50000   0.25464   0.75000
H          H       0.00000   0.21561   0.75000
H          H       0.00000   0.78439   0.75000
H          H       0.50000   0.71561   0.75000
H          H       0.50000   0.28439   0.75000
