data_crystal

_cell_length_a    23.60000
_cell_length_b    23.60000
_cell_length_c    8.04480
_cell_angle_alpha 90.00000
_cell_angle_beta  90.00000
_cell_angle_gamma 120.00000

_space_group_name_Hall 'P 1'
_space_group_name_H-M_alt 'P 1'

loop_
_symmetry_equiv_pos_as_xyz
 'x,y,z'

loop_
_atom_site_label
_atom_site_type_symbol
_atom_site_fract_x
_atom_site_fract_y
_atom_site_fract_z
N          N       0.45450   0.98709   0.03676
N          N       0.01291   0.46741   0.03676
N          N       0.53259   0.54550   0.03676
C          C       0.47168   0.94763   0.47070
C          C       0.05237   0.52405   0.47070
C          C       0.47595   0.52832   0.47070
C          C       0.43454   0.87734   0.46775
C          C       0.12266   0.55720   0.46775
C          C       0.44280   0.56546   0.46775
C          C       0.37304   0.84069   0.04388
C          C       0.15931   0.53235   0.04388
C          C       0.46765   0.62696   0.04388
C          C       0.34024   0.77228   0.03934
C          C       0.22772   0.56796   0.03934
C          C       0.43204   0.65976   0.03934
C          C       0.36728   0.73821   0.45930
C          C       0.26179   0.62907   0.45930
C          C       0.37093   0.63272   0.45930
C          C       0.42864   0.77581   0.38251
C          C       0.22419   0.65283   0.38251
C          C       0.34717   0.57136   0.38251
C          C       0.46170   0.84420   0.38703
C          C       0.15580   0.61750   0.38703
C          C       0.38250   0.53830   0.38703
C          C       0.55990   0.50127   0.03077
C          C       0.49873   0.05863   0.03077
C          C       0.94137   0.44010   0.03077
C          C       0.52377   0.43779   0.46485
C          C       0.56221   0.08598   0.46485
C          C       0.91402   0.47623   0.46485
C          C       0.55006   0.39624   0.46285
C          C       0.60376   0.15382   0.46285
C          C       0.84618   0.44994   0.46285
C          C       0.61331   0.41771   0.02462
C          C       0.58229   0.19560   0.02462
C          C       0.80440   0.38669   0.02462
C          C       0.64962   0.48144   0.08892
C          C       0.51856   0.16818   0.08892
C          C       0.83182   0.35038   0.08892
C          C       0.62295   0.52265   0.09297
C          C       0.47735   0.10030   0.09297
C          C       0.89970   0.37705   0.09297
C          C       0.64113   0.37373   0.02305
C          C       0.62627   0.26740   0.02305
C          C       0.73260   0.35887   0.02305
N          N       0.60110   0.30794   0.02311
N          N       0.69206   0.29316   0.02311
N          N       0.70684   0.39890   0.02311
H          H       0.35003   0.86382   0.10881
H          H       0.13618   0.48621   0.10881
H          H       0.51379   0.64997   0.10881
H          H       0.29329   0.74620   0.09772
H          H       0.25380   0.54709   0.09772
H          H       0.45291   0.70671   0.09772
H          H       0.45202   0.75256   0.32198
H          H       0.24744   0.69946   0.32198
H          H       0.30054   0.54798   0.32198
H          H       0.50893   0.87188   0.32738
H          H       0.12812   0.63705   0.32738
H          H       0.36295   0.49107   0.32738
H          H       0.47518   0.42046   0.41515
H          H       0.57954   0.05472   0.41515
H          H       0.94528   0.52482   0.41515
H          H       0.52144   0.34755   0.41107
H          H       0.65245   0.17389   0.41107
H          H       0.82611   0.47856   0.41107
H          H       0.69820   0.49881   0.13884
H          H       0.50119   0.19939   0.13884
H          H       0.80061   0.30180   0.13884
H          H       0.65150   0.57122   0.14533
H          H       0.42878   0.08028   0.14533
H          H       0.91972   0.34850   0.14533
H          H       0.40770   0.96880   0.09725
H          H       0.03120   0.43890   0.09725
H          H       0.56110   0.59230   0.09725
N          N       0.33333   0.66667   0.45767
N          N       0.45450   0.98709   0.53676
N          N       0.01291   0.46741   0.53676
N          N       0.53259   0.54550   0.53676
C          C       0.47168   0.94763   0.97070
C          C       0.05237   0.52405   0.97070
C          C       0.47595   0.52832   0.97070
C          C       0.43454   0.87734   0.96775
C          C       0.12266   0.55720   0.96775
C          C       0.44280   0.56546   0.96775
C          C       0.37304   0.84069   0.54388
C          C       0.15931   0.53235   0.54388
C          C       0.46765   0.62696   0.54388
C          C       0.34024   0.77228   0.53934
C          C       0.22772   0.56796   0.53934
C          C       0.43204   0.65976   0.53934
C          C       0.36728   0.73821   0.95930
C          C       0.26179   0.62907   0.95930
C          C       0.37093   0.63272   0.95930
C          C       0.42864   0.77581   0.88251
C          C       0.22419   0.65283   0.88251
C          C       0.34717   0.57136   0.88251
C          C       0.46170   0.84420   0.88702
C          C       0.15580   0.61750   0.88702
C          C       0.38250   0.53830   0.88702
C          C       0.55990   0.50127   0.53077
C          C       0.49873   0.05863   0.53077
C          C       0.94137   0.44010   0.53077
C          C       0.52377   0.43779   0.96484
C          C       0.56221   0.08598   0.96484
C          C       0.91402   0.47623   0.96484
C          C       0.55006   0.39624   0.96284
C          C       0.60376   0.15382   0.96284
C          C       0.84618   0.44994   0.96284
C          C       0.61331   0.41771   0.52462
C          C       0.58229   0.19560   0.52462
C          C       0.80440   0.38669   0.52462
C          C       0.64962   0.48144   0.58892
C          C       0.51856   0.16818   0.58892
C          C       0.83182   0.35038   0.58892
C          C       0.62295   0.52265   0.59297
C          C       0.47735   0.10030   0.59297
C          C       0.89970   0.37705   0.59297
C          C       0.64113   0.37373   0.52305
C          C       0.62627   0.26740   0.52305
C          C       0.73260   0.35887   0.52305
N          N       0.60110   0.30794   0.52311
N          N       0.69206   0.29316   0.52311
N          N       0.70684   0.39890   0.52311
H          H       0.35003   0.86382   0.60881
H          H       0.13618   0.48621   0.60881
H          H       0.51379   0.64997   0.60881
H          H       0.29329   0.74620   0.59772
H          H       0.25380   0.54709   0.59772
H          H       0.45291   0.70671   0.59772
H          H       0.45202   0.75256   0.82198
H          H       0.24744   0.69946   0.82198
H          H       0.30054   0.54798   0.82198
H          H       0.50893   0.87188   0.82737
H          H       0.12812   0.63705   0.82737
H          H       0.36295   0.49107   0.82737
H          H       0.47518   0.42046   0.91516
H          H       0.57954   0.05472   0.91516
H          H       0.94528   0.52482   0.91516
H          H       0.52144   0.34755   0.91107
H          H       0.65245   0.17389   0.91107
H          H       0.82611   0.47856   0.91107
H          H       0.69820   0.49881   0.63884
H          H       0.50119   0.19939   0.63884
H          H       0.80061   0.30180   0.63884
H          H       0.65150   0.57122   0.64533
H          H       0.42878   0.08028   0.64533
H          H       0.91972   0.34850   0.64533
H          H       0.40770   0.96880   0.59725
H          H       0.03120   0.43890   0.59725
H          H       0.56110   0.59230   0.59725
N          N       0.33333   0.66667   0.95767
