data_crystal

_cell_length_a    23.11340
_cell_length_b    23.11340
_cell_length_c    6.91660
_cell_angle_alpha 90.00000
_cell_angle_beta  90.00000
_cell_angle_gamma 120.00000

_space_group_name_Hall 'P 1'
_space_group_name_H-M_alt 'P 1'

loop_
_symmetry_equiv_pos_as_xyz
 'x,y,z'

loop_
_atom_site_label
_atom_site_type_symbol
_atom_site_fract_x
_atom_site_fract_y
_atom_site_fract_z
N          N       0.13963   0.54663   0.00000
N          N       0.45337   0.59300   0.00000
N          N       0.40700   0.86037   0.00000
N          N       0.86037   0.45337   0.00000
N          N       0.54663   0.40700   0.00000
N          N       0.59300   0.13963   0.00000
C          C       0.06951   0.52448   0.00000
C          C       0.47552   0.54503   0.00000
C          C       0.45497   0.93049   0.00000
C          C       0.93049   0.47552   0.00000
C          C       0.52448   0.45497   0.00000
C          C       0.54503   0.06951   0.00000
C          C       0.04436   0.56841   0.00000
C          C       0.43159   0.47595   0.00000
C          C       0.52405   0.95564   0.00000
C          C       0.95564   0.43159   0.00000
C          C       0.56841   0.52405   0.00000
C          C       0.47595   0.04436   0.00000
C          C       0.97583   0.54400   0.00000
C          C       0.45600   0.43183   0.00000
C          C       0.56817   0.02417   0.00000
C          C       0.02417   0.45600   0.00000
C          C       0.54400   0.56817   0.00000
C          C       0.43183   0.97583   0.00000
C          C       0.80766   0.38471   0.00000
C          C       0.61529   0.42295   0.00000
C          C       0.57705   0.19234   0.00000
C          C       0.19234   0.61529   0.00000
C          C       0.38471   0.57705   0.00000
C          C       0.42295   0.80766   0.00000
C          C       0.74089   0.36239   0.00000
C          C       0.63761   0.37850   0.00000
C          C       0.62150   0.25911   0.00000
C          C       0.25911   0.63761   0.00000
C          C       0.36239   0.62150   0.00000
C          C       0.37850   0.74089   0.00000
C          C       0.71081   0.40596   0.00000
C          C       0.59404   0.30485   0.00000
C          C       0.69515   0.28919   0.00000
C          C       0.28919   0.59404   0.00000
C          C       0.40596   0.69515   0.00000
C          C       0.30485   0.71081   0.00000
H          H       0.07624   0.62149   0.00000
H          H       0.37851   0.45475   0.00000
H          H       0.54525   0.92376   0.00000
H          H       0.92376   0.37851   0.00000
H          H       0.62149   0.54525   0.00000
H          H       0.45475   0.07624   0.00000
H          H       0.95789   0.57891   0.00000
H          H       0.42109   0.37898   0.00000
H          H       0.62102   0.04211   0.00000
H          H       0.04211   0.42109   0.00000
H          H       0.57891   0.62102   0.00000
H          H       0.37898   0.95789   0.00000
H          H       0.82213   0.34729   0.00000
H          H       0.65271   0.47484   0.00000
H          H       0.52516   0.17787   0.00000
H          H       0.17787   0.65271   0.00000
H          H       0.34729   0.52516   0.00000
H          H       0.47484   0.82213   0.00000
O          O       0.74626   0.46604   0.00000
O          O       0.53396   0.28022   0.00000
O          O       0.71978   0.25374   0.00000
O          O       0.25374   0.53396   0.00000
O          O       0.46604   0.71978   0.00000
O          O       0.28022   0.74626   0.00000
H          H       0.15088   0.50864   0.00000
H          H       0.49136   0.64224   0.00000
H          H       0.35776   0.84912   0.00000
H          H       0.84912   0.49136   0.00000
H          H       0.50864   0.35776   0.00000
H          H       0.64224   0.15088   0.00000
N          N       0.13963   0.54663   0.50000
N          N       0.45337   0.59300   0.50000
N          N       0.40700   0.86037   0.50000
N          N       0.86037   0.45337   0.50000
N          N       0.54663   0.40700   0.50000
N          N       0.59300   0.13963   0.50000
C          C       0.06951   0.52448   0.50000
C          C       0.47552   0.54503   0.50000
C          C       0.45497   0.93049   0.50000
C          C       0.93049   0.47552   0.50000
C          C       0.52448   0.45497   0.50000
C          C       0.54503   0.06951   0.50000
C          C       0.04436   0.56841   0.50000
C          C       0.43159   0.47595   0.50000
C          C       0.52405   0.95564   0.50000
C          C       0.95564   0.43159   0.50000
C          C       0.56841   0.52405   0.50000
C          C       0.47595   0.04436   0.50000
C          C       0.97583   0.54400   0.50000
C          C       0.45600   0.43183   0.50000
C          C       0.56817   0.02417   0.50000
C          C       0.02417   0.45600   0.50000
C          C       0.54400   0.56817   0.50000
C          C       0.43183   0.97583   0.50000
C          C       0.80766   0.38471   0.50000
C          C       0.61529   0.42295   0.50000
C          C       0.57705   0.19234   0.50000
C          C       0.19234   0.61529   0.50000
C          C       0.38471   0.57705   0.50000
C          C       0.42295   0.80766   0.50000
C          C       0.74089   0.36239   0.50000
C          C       0.63761   0.37850   0.50000
C          C       0.62150   0.25911   0.50000
C          C       0.25911   0.63761   0.50000
C          C       0.36239   0.62150   0.50000
C          C       0.37850   0.74089   0.50000
C          C       0.71081   0.40596   0.50000
C          C       0.59404   0.30485   0.50000
C          C       0.69515   0.28919   0.50000
C          C       0.28919   0.59404   0.50000
C          C       0.40596   0.69515   0.50000
C          C       0.30485   0.71081   0.50000
H          H       0.07624   0.62149   0.50000
H          H       0.37851   0.45475   0.50000
H          H       0.54525   0.92376   0.50000
H          H       0.92376   0.37851   0.50000
H          H       0.62149   0.54525   0.50000
H          H       0.45475   0.07624   0.50000
H          H       0.95789   0.57891   0.50000
H          H       0.42109   0.37898   0.50000
H          H       0.62102   0.04211   0.50000
H          H       0.04211   0.42109   0.50000
H          H       0.57891   0.62102   0.50000
H          H       0.37898   0.95789   0.50000
H          H       0.82213   0.34729   0.50000
H          H       0.65271   0.47484   0.50000
H          H       0.52516   0.17787   0.50000
H          H       0.17787   0.65271   0.50000
H          H       0.34729   0.52516   0.50000
H          H       0.47484   0.82213   0.50000
O          O       0.74626   0.46604   0.50000
O          O       0.53396   0.28022   0.50000
O          O       0.71978   0.25374   0.50000
O          O       0.25374   0.53396   0.50000
O          O       0.46604   0.71978   0.50000
O          O       0.28022   0.74626   0.50000
H          H       0.15088   0.50864   0.50000
H          H       0.49136   0.64224   0.50000
H          H       0.35776   0.84912   0.50000
H          H       0.84912   0.49136   0.50000
H          H       0.50864   0.35776   0.50000
H          H       0.64224   0.15088   0.50000
