data_crystal

_cell_length_a    17.36440
_cell_length_b    24.22150
_cell_length_c    9.11640
_cell_angle_alpha 91.63590
_cell_angle_beta  90.00000
_cell_angle_gamma 90.00000

_space_group_name_Hall 'P 1'
_space_group_name_H-M_alt 'P 1'

loop_
_symmetry_equiv_pos_as_xyz
 'x,y,z'

loop_
_atom_site_label
_atom_site_type_symbol
_atom_site_fract_x
_atom_site_fract_y
_atom_site_fract_z
C          C       0.18026   0.54516   0.04168
C          C       0.68026   0.45484   0.45832
C          C       0.81974   0.45484   0.45832
C          C       0.31974   0.54516   0.04168
C          C       0.18115   0.50299   0.14689
C          C       0.68115   0.49701   0.35311
C          C       0.81885   0.49701   0.35311
C          C       0.31885   0.50299   0.14689
C          C       0.10938   0.47508   0.19220
C          C       0.60938   0.52492   0.30780
C          C       0.89062   0.52492   0.30780
C          C       0.39062   0.47508   0.19220
N          N       0.11314   0.43455   0.28581
N          N       0.61314   0.56545   0.21419
N          N       0.88686   0.56545   0.21419
N          N       0.38686   0.43455   0.28581
C          C       0.05413   0.39544   0.32504
C          C       0.55413   0.60456   0.17496
C          C       0.94587   0.60456   0.17496
C          C       0.44587   0.39544   0.32504
C          C       0.98391   0.39080   0.24945
C          C       0.48391   0.60920   0.25055
C          C       0.01609   0.60920   0.25055
C          C       0.51609   0.39080   0.24945
C          C       0.93598   0.34442   0.27181
C          C       0.43598   0.65558   0.22819
C          C       0.06402   0.65558   0.22819
C          C       0.56402   0.34442   0.27181
C          C       0.95772   0.30201   0.36874
C          C       0.45772   0.69799   0.13126
C          C       0.04228   0.69799   0.13126
C          C       0.54228   0.30201   0.36874
C          C       0.02527   0.30902   0.45076
C          C       0.52527   0.69098   0.04924
C          C       0.97473   0.69098   0.04924
C          C       0.47473   0.30902   0.45076
C          C       0.07282   0.35530   0.42907
C          C       0.57282   0.64470   0.07093
C          C       0.92718   0.64470   0.07093
C          C       0.42718   0.35530   0.42907
C          C       0.79036   0.29352   0.44168
C          C       0.29036   0.70648   0.05832
C          C       0.20964   0.70648   0.05832
C          C       0.70964   0.29352   0.44168
H          H       0.12632   0.56057   0.49906
H          H       0.62632   0.43943   0.00094
H          H       0.87368   0.43943   0.00094
H          H       0.37368   0.56057   0.49906
H          H       0.05618   0.48543   0.13714
H          H       0.55618   0.51457   0.36286
H          H       0.94382   0.51457   0.36286
H          H       0.44382   0.48543   0.13714
H          H       0.96806   0.42080   0.16769
H          H       0.46806   0.57920   0.33232
H          H       0.03194   0.57920   0.33232
H          H       0.53194   0.42080   0.16769
H          H       0.88403   0.33995   0.20834
H          H       0.38403   0.66005   0.29166
H          H       0.11597   0.66005   0.29166
H          H       0.61597   0.33995   0.20834
H          H       0.04273   0.27734   0.02700
H          H       0.54273   0.72266   0.47300
H          H       0.95727   0.72266   0.47300
H          H       0.45727   0.27734   0.02700
H          H       0.12675   0.35873   0.48794
H          H       0.62675   0.64127   0.01206
H          H       0.87325   0.64127   0.01206
H          H       0.37325   0.35873   0.48794
H          H       0.82093   0.32731   0.49297
H          H       0.32093   0.67269   0.00703
H          H       0.17907   0.67269   0.00703
H          H       0.67907   0.32731   0.49297
C          C       0.18025   0.95464   0.20808
C          C       0.68025   0.04536   0.29192
C          C       0.81975   0.04536   0.29192
C          C       0.31975   0.95464   0.20808
C          C       0.18115   0.99691   0.10315
C          C       0.68115   0.00309   0.39685
C          C       0.81885   0.00309   0.39685
C          C       0.31885   0.99691   0.10315
C          C       0.10939   0.02488   0.05804
C          C       0.60939   0.97512   0.44196
C          C       0.89061   0.97512   0.44196
C          C       0.39061   0.02488   0.05804
N          N       0.11318   0.06554   0.46482
N          N       0.61318   0.93446   0.03518
N          N       0.88682   0.93446   0.03518
N          N       0.38682   0.06554   0.46482
C          C       0.05417   0.10469   0.42588
C          C       0.55417   0.89531   0.07412
C          C       0.94583   0.89531   0.07412
C          C       0.44583   0.10469   0.42588
C          C       0.98399   0.10931   0.00162
C          C       0.48399   0.89069   0.49838
C          C       0.01601   0.89069   0.49838
C          C       0.51601   0.10931   0.00162
C          C       0.93606   0.15570   0.47953
C          C       0.43606   0.84430   0.02047
C          C       0.06394   0.84430   0.02047
C          C       0.56394   0.15570   0.47953
C          C       0.95775   0.19816   0.38268
C          C       0.45775   0.80184   0.11732
C          C       0.04225   0.80184   0.11732
C          C       0.54225   0.19816   0.38268
C          C       0.02527   0.19119   0.30056
C          C       0.52527   0.80881   0.19944
C          C       0.97473   0.80881   0.19944
C          C       0.47473   0.19119   0.30056
C          C       0.07283   0.14490   0.32199
C          C       0.57283   0.85510   0.17800
C          C       0.92717   0.85510   0.17800
C          C       0.42717   0.14490   0.32199
C          C       0.79036   0.20662   0.30994
C          C       0.29036   0.79338   0.19006
C          C       0.20964   0.79338   0.19006
C          C       0.70964   0.20662   0.30994
H          H       0.12633   0.93916   0.25058
H          H       0.62633   0.06084   0.24942
H          H       0.87367   0.06084   0.24942
H          H       0.37367   0.93916   0.25058
H          H       0.05616   0.01443   0.11289
H          H       0.55616   0.98557   0.38711
H          H       0.94384   0.98557   0.38711
H          H       0.44384   0.01443   0.11289
H          H       0.96817   0.07926   0.08329
H          H       0.46817   0.92074   0.41671
H          H       0.03183   0.92074   0.41671
H          H       0.53183   0.07926   0.08329
H          H       0.88413   0.16011   0.04312
H          H       0.38413   0.83989   0.45689
H          H       0.11587   0.83989   0.45689
H          H       0.61587   0.16011   0.04312
H          H       0.04270   0.22291   0.22439
H          H       0.54270   0.77709   0.27561
H          H       0.95730   0.77709   0.27561
H          H       0.45730   0.22291   0.22439
H          H       0.12674   0.14151   0.26303
H          H       0.62674   0.85849   0.23697
H          H       0.87326   0.85849   0.23697
H          H       0.37326   0.14151   0.26303
H          H       0.82094   0.17284   0.25859
H          H       0.32094   0.82716   0.24141
H          H       0.17906   0.82716   0.24141
H          H       0.67906   0.17284   0.25859
N          N       0.91517   0.25008   0.37579
N          N       0.41517   0.74992   0.12421
N          N       0.08483   0.74992   0.12421
N          N       0.58483   0.25008   0.37579
C          C       0.83170   0.25007   0.37582
C          C       0.33170   0.74993   0.12418
C          C       0.16830   0.74993   0.12418
C          C       0.66830   0.25007   0.37582
N          N       0.25000   0.48324   0.19570
N          N       0.75000   0.51676   0.30430
C          C       0.25000   0.56575   0.48772
C          C       0.75000   0.43425   0.01229
H          H       0.25000   0.59625   0.40083
H          H       0.75000   0.40375   0.09917
N          N       0.25000   0.01672   0.05448
N          N       0.75000   0.98328   0.44552
C          C       0.25000   0.93401   0.26194
C          C       0.75000   0.06599   0.23806
H          H       0.25000   0.90342   0.34861
H          H       0.75000   0.09658   0.15139
C          C       0.18026   0.54516   0.54168
C          C       0.68026   0.45484   0.95832
C          C       0.81974   0.45484   0.95832
C          C       0.31974   0.54516   0.54168
C          C       0.18115   0.50299   0.64689
C          C       0.68115   0.49701   0.85311
C          C       0.81885   0.49701   0.85311
C          C       0.31885   0.50299   0.64689
C          C       0.10938   0.47508   0.69220
C          C       0.60938   0.52492   0.80780
C          C       0.89062   0.52492   0.80780
C          C       0.39062   0.47508   0.69220
N          N       0.11314   0.43455   0.78581
N          N       0.61314   0.56545   0.71418
N          N       0.88686   0.56545   0.71418
N          N       0.38686   0.43455   0.78581
C          C       0.05413   0.39544   0.82505
C          C       0.55413   0.60456   0.67495
C          C       0.94587   0.60456   0.67495
C          C       0.44587   0.39544   0.82505
C          C       0.98391   0.39080   0.74945
C          C       0.48391   0.60920   0.75055
C          C       0.01609   0.60920   0.75055
C          C       0.51609   0.39080   0.74945
C          C       0.93598   0.34442   0.77181
C          C       0.43598   0.65558   0.72819
C          C       0.06402   0.65558   0.72819
C          C       0.56402   0.34442   0.77181
C          C       0.95772   0.30201   0.86875
C          C       0.45772   0.69799   0.63126
C          C       0.04228   0.69799   0.63126
C          C       0.54228   0.30201   0.86875
C          C       0.02527   0.30902   0.95076
C          C       0.52527   0.69098   0.54924
C          C       0.97473   0.69098   0.54924
C          C       0.47473   0.30902   0.95076
C          C       0.07282   0.35530   0.92907
C          C       0.57282   0.64470   0.57093
C          C       0.92718   0.64470   0.57093
C          C       0.42718   0.35530   0.92907
C          C       0.79036   0.29352   0.94168
C          C       0.29036   0.70648   0.55832
C          C       0.20964   0.70648   0.55832
C          C       0.70964   0.29352   0.94168
H          H       0.12632   0.56057   0.99906
H          H       0.62632   0.43943   0.50094
H          H       0.87368   0.43943   0.50094
H          H       0.37368   0.56057   0.99906
H          H       0.05618   0.48543   0.63715
H          H       0.55618   0.51457   0.86285
H          H       0.94382   0.51457   0.86285
H          H       0.44382   0.48543   0.63715
H          H       0.96806   0.42080   0.66768
H          H       0.46806   0.57920   0.83232
H          H       0.03194   0.57920   0.83232
H          H       0.53194   0.42080   0.66768
H          H       0.88403   0.33995   0.70834
H          H       0.38403   0.66005   0.79166
H          H       0.11597   0.66005   0.79166
H          H       0.61597   0.33995   0.70834
H          H       0.04273   0.27734   0.52700
H          H       0.54273   0.72266   0.97300
H          H       0.95727   0.72266   0.97300
H          H       0.45727   0.27734   0.52700
H          H       0.12675   0.35873   0.98794
H          H       0.62675   0.64127   0.51206
H          H       0.87325   0.64127   0.51206
H          H       0.37325   0.35873   0.98794
H          H       0.82093   0.32731   0.99297
H          H       0.32093   0.67269   0.50702
H          H       0.17907   0.67269   0.50702
H          H       0.67907   0.32731   0.99297
C          C       0.18025   0.95464   0.70808
C          C       0.68025   0.04536   0.79192
C          C       0.81975   0.04536   0.79192
C          C       0.31975   0.95464   0.70808
C          C       0.18115   0.99691   0.60315
C          C       0.68115   0.00309   0.89685
C          C       0.81885   0.00309   0.89685
C          C       0.31885   0.99691   0.60315
C          C       0.10939   0.02488   0.55804
C          C       0.60939   0.97512   0.94196
C          C       0.89061   0.97512   0.94196
C          C       0.39061   0.02488   0.55804
N          N       0.11318   0.06554   0.96482
N          N       0.61318   0.93446   0.53518
N          N       0.88682   0.93446   0.53518
N          N       0.38682   0.06554   0.96482
C          C       0.05417   0.10469   0.92588
C          C       0.55417   0.89531   0.57412
C          C       0.94583   0.89531   0.57412
C          C       0.44583   0.10469   0.92588
C          C       0.98399   0.10931   0.50162
C          C       0.48399   0.89069   0.99838
C          C       0.01601   0.89069   0.99838
C          C       0.51601   0.10931   0.50162
C          C       0.93606   0.15570   0.97953
C          C       0.43606   0.84430   0.52047
C          C       0.06394   0.84430   0.52047
C          C       0.56394   0.15570   0.97953
C          C       0.95775   0.19816   0.88269
C          C       0.45775   0.80184   0.61732
C          C       0.04225   0.80184   0.61732
C          C       0.54225   0.19816   0.88269
C          C       0.02527   0.19119   0.80056
C          C       0.52527   0.80881   0.69944
C          C       0.97473   0.80881   0.69944
C          C       0.47473   0.19119   0.80056
C          C       0.07283   0.14490   0.82199
C          C       0.57283   0.85510   0.67800
C          C       0.92717   0.85510   0.67800
C          C       0.42717   0.14490   0.82199
C          C       0.79036   0.20662   0.80994
C          C       0.29036   0.79338   0.69006
C          C       0.20964   0.79338   0.69006
C          C       0.70964   0.20662   0.80994
H          H       0.12633   0.93916   0.75058
H          H       0.62633   0.06084   0.74942
H          H       0.87367   0.06084   0.74942
H          H       0.37367   0.93916   0.75058
H          H       0.05616   0.01443   0.61289
H          H       0.55616   0.98557   0.88711
H          H       0.94384   0.98557   0.88711
H          H       0.44384   0.01443   0.61289
H          H       0.96817   0.07926   0.58328
H          H       0.46817   0.92074   0.91671
H          H       0.03183   0.92074   0.91671
H          H       0.53183   0.07926   0.58328
H          H       0.88413   0.16011   0.54312
H          H       0.38413   0.83989   0.95689
H          H       0.11587   0.83989   0.95689
H          H       0.61587   0.16011   0.54312
H          H       0.04270   0.22291   0.72439
H          H       0.54270   0.77709   0.77561
H          H       0.95730   0.77709   0.77561
H          H       0.45730   0.22291   0.72439
H          H       0.12674   0.14151   0.76303
H          H       0.62674   0.85849   0.73697
H          H       0.87326   0.85849   0.73697
H          H       0.37326   0.14151   0.76303
H          H       0.82094   0.17284   0.75859
H          H       0.32094   0.82716   0.74141
H          H       0.17906   0.82716   0.74141
H          H       0.67906   0.17284   0.75859
N          N       0.91517   0.25008   0.87579
N          N       0.41517   0.74992   0.62421
N          N       0.08483   0.74992   0.62421
N          N       0.58483   0.25008   0.87579
C          C       0.83170   0.25007   0.87582
C          C       0.33170   0.74993   0.62418
C          C       0.16830   0.74993   0.62418
C          C       0.66830   0.25007   0.87582
N          N       0.25000   0.48324   0.69570
N          N       0.75000   0.51676   0.80430
C          C       0.25000   0.56575   0.98772
C          C       0.75000   0.43425   0.51228
H          H       0.25000   0.59625   0.90083
H          H       0.75000   0.40375   0.59917
N          N       0.25000   0.01672   0.55448
N          N       0.75000   0.98328   0.94552
C          C       0.25000   0.93401   0.76193
C          C       0.75000   0.06599   0.73806
H          H       0.25000   0.90342   0.84861
H          H       0.75000   0.09658   0.65139
