data_crystal

_cell_length_a    32.39910
_cell_length_b    32.39910
_cell_length_c    15.60160
_cell_angle_alpha 90.00000
_cell_angle_beta  90.00000
_cell_angle_gamma 120.00000

_space_group_name_Hall 'P 1'
_space_group_name_H-M_alt 'P 1'

loop_
_symmetry_equiv_pos_as_xyz
 'x,y,z'

loop_
_atom_site_label
_atom_site_type_symbol
_atom_site_fract_x
_atom_site_fract_y
_atom_site_fract_z
C          C       0.61556   0.31113   0.03973
C          C       0.68887   0.30443   0.03973
C          C       0.69557   0.38444   0.03973
C          C       0.28223   0.64446   0.20639
C          C       0.35554   0.63776   0.20639
C          C       0.36224   0.71777   0.20639
C          C       0.94889   0.97780   0.37306
C          C       0.02220   0.97110   0.37306
C          C       0.02890   0.05111   0.37306
C          C       0.38444   0.68887   0.46027
C          C       0.31113   0.69557   0.46027
C          C       0.30443   0.61556   0.46027
C          C       0.05111   0.02220   0.12694
C          C       0.97780   0.02890   0.12694
C          C       0.97110   0.94889   0.12694
C          C       0.71777   0.35554   0.29361
C          C       0.64446   0.36224   0.29361
C          C       0.63776   0.28223   0.29361
C          C       0.74032   0.40716   0.08059
C          C       0.59284   0.33316   0.08059
C          C       0.66684   0.25968   0.08059
C          C       0.40699   0.74049   0.24725
C          C       0.25951   0.66649   0.24725
C          C       0.33351   0.59301   0.24725
C          C       0.07365   0.07383   0.41392
C          C       0.92617   0.99983   0.41392
C          C       0.00017   0.92635   0.41392
C          C       0.25968   0.59284   0.41941
C          C       0.40716   0.66684   0.41941
C          C       0.33316   0.74032   0.41941
C          C       0.92635   0.92617   0.08608
C          C       0.07383   0.00017   0.08608
C          C       0.99983   0.07365   0.08608
C          C       0.59301   0.25951   0.25275
C          C       0.74049   0.33351   0.25275
C          C       0.66649   0.40699   0.25275
C          C       0.76729   0.45651   0.08598
C          C       0.54349   0.31078   0.08598
C          C       0.68922   0.23271   0.08598
C          C       0.43396   0.78984   0.25265
C          C       0.21016   0.64411   0.25265
C          C       0.35589   0.56604   0.25265
C          C       0.10062   0.12318   0.41931
C          C       0.87682   0.97745   0.41931
C          C       0.02255   0.89938   0.41931
C          C       0.23271   0.54349   0.41402
C          C       0.45651   0.68922   0.41402
C          C       0.31078   0.76729   0.41402
C          C       0.89938   0.87682   0.08069
C          C       0.12318   0.02255   0.08069
C          C       0.97745   0.10062   0.08069
C          C       0.56604   0.21016   0.24735
C          C       0.78984   0.35589   0.24735
C          C       0.64411   0.43396   0.24735
C          C       0.75148   0.48602   0.05145
C          C       0.51398   0.26546   0.05145
C          C       0.73454   0.24852   0.05145
C          C       0.41815   0.81935   0.21812
C          C       0.18065   0.59879   0.21812
C          C       0.40121   0.58185   0.21812
C          C       0.08481   0.15269   0.38478
C          C       0.84731   0.93213   0.38478
C          C       0.06787   0.91519   0.38478
C          C       0.24852   0.51398   0.44855
C          C       0.48602   0.73454   0.44855
C          C       0.26546   0.75148   0.44855
C          C       0.91519   0.84731   0.11522
C          C       0.15269   0.06787   0.11522
C          C       0.93213   0.08481   0.11522
C          C       0.58185   0.18065   0.28188
C          C       0.81935   0.40121   0.28188
C          C       0.59879   0.41815   0.28188
C          C       0.70744   0.46352   0.00895
C          C       0.53648   0.24392   0.00895
C          C       0.75608   0.29256   0.00895
C          C       0.37411   0.79685   0.17562
C          C       0.20315   0.57725   0.17562
C          C       0.42275   0.62589   0.17562
C          C       0.04077   0.13019   0.34229
C          C       0.86981   0.91059   0.34229
C          C       0.08941   0.95923   0.34229
C          C       0.29256   0.53648   0.49105
C          C       0.46352   0.75608   0.49105
C          C       0.24392   0.70744   0.49105
C          C       0.95923   0.86981   0.15771
C          C       0.13019   0.08941   0.15771
C          C       0.91059   0.04077   0.15771
C          C       0.62589   0.20315   0.32438
C          C       0.79685   0.42275   0.32438
C          C       0.57725   0.37411   0.32438
C          C       0.68018   0.41415   0.00301
C          C       0.58585   0.26603   0.00301
C          C       0.73397   0.31982   0.00301
C          C       0.34685   0.74748   0.16968
C          C       0.25252   0.59936   0.16968
C          C       0.40064   0.65315   0.16968
C          C       0.01351   0.08082   0.33634
C          C       0.91918   0.93270   0.33634
C          C       0.06730   0.98649   0.33634
C          C       0.31982   0.58585   0.49699
C          C       0.41415   0.73397   0.49699
C          C       0.26603   0.68018   0.49699
C          C       0.98649   0.91918   0.16366
C          C       0.08082   0.06730   0.16366
C          C       0.93270   0.01351   0.16366
C          C       0.65315   0.25252   0.33032
C          C       0.74748   0.40064   0.33032
C          C       0.59936   0.34685   0.33032
N          N       0.77944   0.53570   0.06184
N          N       0.46430   0.24374   0.06184
N          N       0.75626   0.22056   0.06184
N          N       0.44611   0.86903   0.22850
N          N       0.13097   0.57707   0.22850
N          N       0.42293   0.55389   0.22850
N          N       0.11277   0.20237   0.39517
N          N       0.79763   0.91041   0.39517
N          N       0.08959   0.88723   0.39517
N          N       0.22056   0.46430   0.43817
N          N       0.53570   0.75626   0.43817
N          N       0.24374   0.77944   0.43817
N          N       0.88723   0.79763   0.10483
N          N       0.20237   0.08959   0.10483
N          N       0.91041   0.11277   0.10483
N          N       0.55389   0.13097   0.27150
N          N       0.86903   0.42293   0.27150
N          N       0.57707   0.44611   0.27150
C          C       0.79828   0.22978   0.03739
C          C       0.77022   0.56850   0.03739
C          C       0.43150   0.20172   0.03739
C          C       0.46495   0.56311   0.20405
C          C       0.43689   0.90183   0.20405
C          C       0.09817   0.53505   0.20405
C          C       0.13161   0.89645   0.37072
C          C       0.10355   0.23517   0.37072
C          C       0.76483   0.86839   0.37072
C          C       0.20172   0.77022   0.46261
C          C       0.22978   0.43150   0.46261
C          C       0.56850   0.79828   0.46261
C          C       0.86839   0.10355   0.12928
C          C       0.89645   0.76483   0.12928
C          C       0.23517   0.13161   0.12928
C          C       0.53505   0.43689   0.29595
C          C       0.56311   0.09817   0.29595
C          C       0.90183   0.46495   0.29595
C          C       0.81514   0.19744   0.06110
C          C       0.80256   0.61770   0.06110
C          C       0.38230   0.18486   0.06110
C          C       0.48181   0.53077   0.22777
C          C       0.46923   0.95103   0.22777
C          C       0.04897   0.51819   0.22777
C          C       0.14847   0.86411   0.39444
C          C       0.13589   0.28437   0.39444
C          C       0.71563   0.85153   0.39444
C          C       0.18486   0.80256   0.43889
C          C       0.19744   0.38230   0.43889
C          C       0.61770   0.81514   0.43889
C          C       0.85153   0.13589   0.10556
C          C       0.86411   0.71563   0.10556
C          C       0.28437   0.14847   0.10556
C          C       0.51819   0.46923   0.27223
C          C       0.53077   0.04897   0.27223
C          C       0.95103   0.48181   0.27223
C          C       0.84440   0.63256   0.10935
C          C       0.36744   0.21184   0.10935
C          C       0.78816   0.15560   0.10935
C          C       0.51107   0.96589   0.27602
C          C       0.03411   0.54517   0.27602
C          C       0.45483   0.48893   0.27602
C          C       0.17773   0.29923   0.44268
C          C       0.70077   0.87851   0.44268
C          C       0.12149   0.82227   0.44268
C          C       0.15560   0.36744   0.39065
C          C       0.63256   0.78816   0.39065
C          C       0.21184   0.84440   0.39065
C          C       0.82227   0.70077   0.05732
C          C       0.29923   0.12149   0.05732
C          C       0.87851   0.17773   0.05732
C          C       0.48893   0.03411   0.22398
C          C       0.96589   0.45483   0.22398
C          C       0.54517   0.51107   0.22398
C          C       0.87408   0.67988   0.13087
C          C       0.32012   0.19420   0.13087
C          C       0.80580   0.12592   0.13087
C          C       0.54075   0.01321   0.29754
C          C       0.98679   0.52753   0.29754
C          C       0.47247   0.45925   0.29754
C          C       0.20741   0.34655   0.46421
C          C       0.65345   0.86087   0.46421
C          C       0.13913   0.79259   0.46421
C          C       0.12592   0.32012   0.36913
C          C       0.67988   0.80580   0.36913
C          C       0.19420   0.87408   0.36913
C          C       0.79259   0.65345   0.03579
C          C       0.34655   0.13913   0.03579
C          C       0.86087   0.20741   0.03579
C          C       0.45925   0.98679   0.20246
C          C       0.01321   0.47247   0.20246
C          C       0.52753   0.54075   0.20246
H          H       0.75410   0.38594   0.11155
H          H       0.61406   0.36816   0.11155
H          H       0.63184   0.24590   0.11155
H          H       0.42077   0.71927   0.27821
H          H       0.28073   0.70149   0.27821
H          H       0.29851   0.57923   0.27821
H          H       0.08743   0.05261   0.44488
H          H       0.94739   0.03483   0.44488
H          H       0.96517   0.91257   0.44488
H          H       0.24590   0.61406   0.38845
H          H       0.38594   0.63184   0.38845
H          H       0.36816   0.75410   0.38845
H          H       0.91257   0.94739   0.05512
H          H       0.05261   0.96517   0.05512
H          H       0.03483   0.08743   0.05512
H          H       0.57923   0.28073   0.22179
H          H       0.71927   0.29851   0.22179
H          H       0.70149   0.42077   0.22179
H          H       0.80159   0.47227   0.12000
H          H       0.52773   0.32932   0.12000
H          H       0.67068   0.19841   0.12000
H          H       0.46826   0.80560   0.28666
H          H       0.19440   0.66265   0.28666
H          H       0.33735   0.53174   0.28666
H          H       0.13492   0.13894   0.45333
H          H       0.86106   0.99599   0.45333
H          H       0.00401   0.86508   0.45333
H          H       0.19841   0.52773   0.38000
H          H       0.47227   0.67068   0.38000
H          H       0.32932   0.80159   0.38000
H          H       0.86508   0.86106   0.04667
H          H       0.13894   0.00401   0.04667
H          H       0.99599   0.13492   0.04667
H          H       0.53174   0.19440   0.21334
H          H       0.80560   0.33735   0.21334
H          H       0.66265   0.46826   0.21334
H          H       0.69299   0.48448   0.47972
H          H       0.51552   0.20851   0.47972
H          H       0.79149   0.30701   0.47972
H          H       0.35966   0.81781   0.14639
H          H       0.18219   0.54184   0.14639
H          H       0.45816   0.64034   0.14639
H          H       0.02632   0.15115   0.31305
H          H       0.84885   0.87518   0.31305
H          H       0.12482   0.97368   0.31305
H          H       0.30701   0.51552   0.02028
H          H       0.48448   0.79149   0.02028
H          H       0.20851   0.69299   0.02028
H          H       0.97368   0.84885   0.18695
H          H       0.15115   0.12482   0.18695
H          H       0.87518   0.02632   0.18695
H          H       0.64034   0.18219   0.35361
H          H       0.81781   0.45816   0.35361
H          H       0.54184   0.35966   0.35361
H          H       0.64596   0.39839   0.46847
H          H       0.60161   0.24757   0.46847
H          H       0.75243   0.35404   0.46847
H          H       0.31263   0.73172   0.13513
H          H       0.26828   0.58090   0.13513
H          H       0.41910   0.68737   0.13513
H          H       0.97929   0.06506   0.30180
H          H       0.93494   0.91424   0.30180
H          H       0.08576   0.02071   0.30180
H          H       0.35404   0.60161   0.03154
H          H       0.39839   0.75243   0.03154
H          H       0.24757   0.64596   0.03154
H          H       0.02071   0.93494   0.19820
H          H       0.06506   0.08576   0.19820
H          H       0.91424   0.97929   0.19820
H          H       0.68737   0.26828   0.36487
H          H       0.73172   0.41910   0.36487
H          H       0.58090   0.31263   0.36487
H          H       0.82291   0.26191   0.00104
H          H       0.73809   0.56100   0.00104
H          H       0.43900   0.17709   0.00104
H          H       0.48958   0.59524   0.16771
H          H       0.40476   0.89433   0.16771
H          H       0.10567   0.51042   0.16771
H          H       0.15624   0.92858   0.33437
H          H       0.07142   0.22767   0.33437
H          H       0.77233   0.84376   0.33437
H          H       0.17709   0.73809   0.49896
H          H       0.26191   0.43900   0.49896
H          H       0.56100   0.82291   0.49896
H          H       0.84376   0.07142   0.16563
H          H       0.92858   0.77233   0.16563
H          H       0.22767   0.15624   0.16563
H          H       0.51042   0.40476   0.33229
H          H       0.59524   0.10567   0.33229
H          H       0.89433   0.48958   0.33229
H          H       0.85443   0.60654   0.13137
H          H       0.39346   0.24789   0.13137
H          H       0.75211   0.14557   0.13137
H          H       0.52110   0.93987   0.29804
H          H       0.06013   0.58122   0.29804
H          H       0.41878   0.47890   0.29804
H          H       0.18776   0.27321   0.46470
H          H       0.72679   0.91456   0.46470
H          H       0.08544   0.81224   0.46470
H          H       0.14557   0.39346   0.36863
H          H       0.60654   0.75211   0.36863
H          H       0.24789   0.85443   0.36863
H          H       0.81224   0.72679   0.03530
H          H       0.27321   0.08544   0.03530
H          H       0.91456   0.18776   0.03530
H          H       0.47890   0.06013   0.20196
H          H       0.93987   0.41878   0.20196
H          H       0.58122   0.52110   0.20196
H          H       0.90615   0.68900   0.16874
H          H       0.31100   0.21715   0.16874
H          H       0.78285   0.09385   0.16874
H          H       0.57282   0.02233   0.33541
H          H       0.97767   0.55048   0.33541
H          H       0.44952   0.42718   0.33541
H          H       0.23948   0.35567   0.00207
H          H       0.64433   0.88382   0.00207
H          H       0.11618   0.76052   0.00207
H          H       0.09385   0.31100   0.33126
H          H       0.68900   0.78285   0.33126
H          H       0.21715   0.90615   0.33126
H          H       0.76052   0.64433   0.49793
H          H       0.35567   0.11618   0.49793
H          H       0.88382   0.23948   0.49793
H          H       0.42718   0.97767   0.16459
H          H       0.02233   0.44952   0.16459
H          H       0.55048   0.57282   0.16459
N          N       0.66667   0.33333   0.03692
N          N       0.33334   0.66666   0.20358
N          N       0.00000   1.00000   0.37025
N          N       0.33333   0.66667   0.46308
N          N       1.00000   0.00000   0.12975
N          N       0.66666   0.33334   0.29642
C          C       0.61556   0.31113   0.53973
C          C       0.68887   0.30443   0.53973
C          C       0.69557   0.38444   0.53973
C          C       0.28223   0.64446   0.70639
C          C       0.35554   0.63776   0.70639
C          C       0.36224   0.71777   0.70639
C          C       0.94889   0.97780   0.87306
C          C       0.02220   0.97110   0.87306
C          C       0.02890   0.05111   0.87306
C          C       0.38444   0.68887   0.96027
C          C       0.31113   0.69557   0.96027
C          C       0.30443   0.61556   0.96027
C          C       0.05111   0.02220   0.62694
C          C       0.97780   0.02890   0.62694
C          C       0.97110   0.94889   0.62694
C          C       0.71777   0.35554   0.79361
C          C       0.64446   0.36224   0.79361
C          C       0.63776   0.28223   0.79361
C          C       0.74032   0.40716   0.58059
C          C       0.59284   0.33316   0.58059
C          C       0.66684   0.25968   0.58059
C          C       0.40699   0.74049   0.74725
C          C       0.25951   0.66649   0.74725
C          C       0.33351   0.59301   0.74725
C          C       0.07365   0.07383   0.91392
C          C       0.92617   0.99983   0.91392
C          C       0.00017   0.92635   0.91392
C          C       0.25968   0.59284   0.91941
C          C       0.40716   0.66684   0.91941
C          C       0.33316   0.74032   0.91941
C          C       0.92635   0.92617   0.58608
C          C       0.07383   0.00017   0.58608
C          C       0.99983   0.07365   0.58608
C          C       0.59301   0.25951   0.75275
C          C       0.74049   0.33351   0.75275
C          C       0.66649   0.40699   0.75275
C          C       0.76729   0.45651   0.58598
C          C       0.54349   0.31078   0.58598
C          C       0.68922   0.23271   0.58598
C          C       0.43396   0.78984   0.75265
C          C       0.21016   0.64411   0.75265
C          C       0.35589   0.56604   0.75265
C          C       0.10062   0.12318   0.91931
C          C       0.87682   0.97745   0.91931
C          C       0.02255   0.89938   0.91931
C          C       0.23271   0.54349   0.91402
C          C       0.45651   0.68922   0.91402
C          C       0.31078   0.76729   0.91402
C          C       0.89938   0.87682   0.58069
C          C       0.12318   0.02255   0.58069
C          C       0.97745   0.10062   0.58069
C          C       0.56604   0.21016   0.74735
C          C       0.78984   0.35589   0.74735
C          C       0.64411   0.43396   0.74735
C          C       0.75148   0.48602   0.55145
C          C       0.51398   0.26546   0.55145
C          C       0.73454   0.24852   0.55145
C          C       0.41815   0.81935   0.71812
C          C       0.18065   0.59879   0.71812
C          C       0.40121   0.58185   0.71812
C          C       0.08481   0.15269   0.88478
C          C       0.84731   0.93213   0.88478
C          C       0.06787   0.91519   0.88478
C          C       0.24852   0.51398   0.94855
C          C       0.48602   0.73454   0.94855
C          C       0.26546   0.75148   0.94855
C          C       0.91519   0.84731   0.61522
C          C       0.15269   0.06787   0.61522
C          C       0.93213   0.08481   0.61522
C          C       0.58185   0.18065   0.78188
C          C       0.81935   0.40121   0.78188
C          C       0.59879   0.41815   0.78188
C          C       0.70744   0.46352   0.50896
C          C       0.53648   0.24392   0.50896
C          C       0.75608   0.29256   0.50896
C          C       0.37411   0.79685   0.67562
C          C       0.20315   0.57725   0.67562
C          C       0.42275   0.62589   0.67562
C          C       0.04077   0.13019   0.84229
C          C       0.86981   0.91059   0.84229
C          C       0.08941   0.95923   0.84229
C          C       0.29256   0.53648   0.99104
C          C       0.46352   0.75608   0.99104
C          C       0.24392   0.70744   0.99104
C          C       0.95923   0.86981   0.65771
C          C       0.13019   0.08941   0.65771
C          C       0.91059   0.04077   0.65771
C          C       0.62589   0.20315   0.82438
C          C       0.79685   0.42275   0.82438
C          C       0.57725   0.37411   0.82438
C          C       0.68018   0.41415   0.50301
C          C       0.58585   0.26603   0.50301
C          C       0.73397   0.31982   0.50301
C          C       0.34685   0.74748   0.66968
C          C       0.25252   0.59936   0.66968
C          C       0.40064   0.65315   0.66968
C          C       0.01351   0.08082   0.83634
C          C       0.91918   0.93270   0.83634
C          C       0.06730   0.98649   0.83634
C          C       0.31982   0.58585   0.99699
C          C       0.41415   0.73397   0.99699
C          C       0.26603   0.68018   0.99699
C          C       0.98649   0.91918   0.66366
C          C       0.08082   0.06730   0.66366
C          C       0.93270   0.01351   0.66366
C          C       0.65315   0.25252   0.83032
C          C       0.74748   0.40064   0.83032
C          C       0.59936   0.34685   0.83032
N          N       0.77944   0.53570   0.56184
N          N       0.46430   0.24374   0.56184
N          N       0.75626   0.22056   0.56184
N          N       0.44611   0.86903   0.72850
N          N       0.13097   0.57707   0.72850
N          N       0.42293   0.55389   0.72850
N          N       0.11277   0.20237   0.89517
N          N       0.79763   0.91041   0.89517
N          N       0.08959   0.88723   0.89517
N          N       0.22056   0.46430   0.93817
N          N       0.53570   0.75626   0.93817
N          N       0.24374   0.77944   0.93817
N          N       0.88723   0.79763   0.60483
N          N       0.20237   0.08959   0.60483
N          N       0.91041   0.11277   0.60483
N          N       0.55389   0.13097   0.77150
N          N       0.86903   0.42293   0.77150
N          N       0.57707   0.44611   0.77150
C          C       0.79828   0.22978   0.53739
C          C       0.77022   0.56850   0.53739
C          C       0.43150   0.20172   0.53739
C          C       0.46495   0.56311   0.70405
C          C       0.43689   0.90183   0.70405
C          C       0.09817   0.53505   0.70405
C          C       0.13161   0.89645   0.87072
C          C       0.10355   0.23517   0.87072
C          C       0.76483   0.86839   0.87072
C          C       0.20172   0.77022   0.96262
C          C       0.22978   0.43150   0.96262
C          C       0.56850   0.79828   0.96262
C          C       0.86839   0.10355   0.62928
C          C       0.89645   0.76483   0.62928
C          C       0.23517   0.13161   0.62928
C          C       0.53505   0.43689   0.79595
C          C       0.56311   0.09817   0.79595
C          C       0.90183   0.46495   0.79595
C          C       0.81514   0.19744   0.56110
C          C       0.80256   0.61770   0.56110
C          C       0.38230   0.18486   0.56110
C          C       0.48181   0.53077   0.72777
C          C       0.46923   0.95103   0.72777
C          C       0.04897   0.51819   0.72777
C          C       0.14847   0.86411   0.89444
C          C       0.13589   0.28437   0.89444
C          C       0.71563   0.85153   0.89444
C          C       0.18486   0.80256   0.93889
C          C       0.19744   0.38230   0.93889
C          C       0.61770   0.81514   0.93889
C          C       0.85153   0.13589   0.60556
C          C       0.86411   0.71563   0.60556
C          C       0.28437   0.14847   0.60556
C          C       0.51819   0.46923   0.77223
C          C       0.53077   0.04897   0.77223
C          C       0.95103   0.48181   0.77223
C          C       0.84440   0.63256   0.60935
C          C       0.36744   0.21184   0.60935
C          C       0.78816   0.15560   0.60935
C          C       0.51107   0.96589   0.77602
C          C       0.03411   0.54517   0.77602
C          C       0.45483   0.48893   0.77602
C          C       0.17773   0.29923   0.94268
C          C       0.70077   0.87851   0.94268
C          C       0.12149   0.82227   0.94268
C          C       0.15560   0.36744   0.89065
C          C       0.63256   0.78816   0.89065
C          C       0.21184   0.84440   0.89065
C          C       0.82227   0.70077   0.55732
C          C       0.29923   0.12149   0.55732
C          C       0.87851   0.17773   0.55732
C          C       0.48893   0.03411   0.72398
C          C       0.96589   0.45483   0.72398
C          C       0.54517   0.51107   0.72398
C          C       0.87408   0.67988   0.63087
C          C       0.32012   0.19420   0.63087
C          C       0.80580   0.12592   0.63087
C          C       0.54075   0.01321   0.79754
C          C       0.98679   0.52753   0.79754
C          C       0.47247   0.45925   0.79754
C          C       0.20741   0.34655   0.96421
C          C       0.65345   0.86087   0.96421
C          C       0.13913   0.79259   0.96421
C          C       0.12592   0.32012   0.86913
C          C       0.67988   0.80580   0.86913
C          C       0.19420   0.87408   0.86913
C          C       0.79259   0.65345   0.53579
C          C       0.34655   0.13913   0.53579
C          C       0.86087   0.20741   0.53579
C          C       0.45925   0.98679   0.70246
C          C       0.01321   0.47247   0.70246
C          C       0.52753   0.54075   0.70246
H          H       0.75410   0.38594   0.61155
H          H       0.61406   0.36816   0.61155
H          H       0.63184   0.24590   0.61155
H          H       0.42077   0.71927   0.77821
H          H       0.28073   0.70149   0.77821
H          H       0.29851   0.57923   0.77821
H          H       0.08743   0.05261   0.94488
H          H       0.94739   0.03483   0.94488
H          H       0.96517   0.91257   0.94488
H          H       0.24590   0.61406   0.88845
H          H       0.38594   0.63184   0.88845
H          H       0.36816   0.75410   0.88845
H          H       0.91257   0.94739   0.55512
H          H       0.05261   0.96517   0.55512
H          H       0.03483   0.08743   0.55512
H          H       0.57923   0.28073   0.72179
H          H       0.71927   0.29851   0.72179
H          H       0.70149   0.42077   0.72179
H          H       0.80159   0.47227   0.61999
H          H       0.52773   0.32932   0.61999
H          H       0.67068   0.19841   0.61999
H          H       0.46826   0.80560   0.78666
H          H       0.19440   0.66265   0.78666
H          H       0.33735   0.53174   0.78666
H          H       0.13492   0.13894   0.95333
H          H       0.86106   0.99599   0.95333
H          H       0.00401   0.86508   0.95333
H          H       0.19841   0.52773   0.88000
H          H       0.47227   0.67068   0.88000
H          H       0.32932   0.80159   0.88000
H          H       0.86508   0.86106   0.54667
H          H       0.13894   0.00401   0.54667
H          H       0.99599   0.13492   0.54667
H          H       0.53174   0.19440   0.71334
H          H       0.80560   0.33735   0.71334
H          H       0.66265   0.46826   0.71334
H          H       0.69299   0.48448   0.97972
H          H       0.51552   0.20851   0.97972
H          H       0.79149   0.30701   0.97972
H          H       0.35966   0.81781   0.64639
H          H       0.18219   0.54184   0.64639
H          H       0.45816   0.64034   0.64639
H          H       0.02632   0.15115   0.81305
H          H       0.84885   0.87518   0.81305
H          H       0.12482   0.97368   0.81305
H          H       0.30701   0.51552   0.52028
H          H       0.48448   0.79149   0.52028
H          H       0.20851   0.69299   0.52028
H          H       0.97368   0.84885   0.68695
H          H       0.15115   0.12482   0.68695
H          H       0.87518   0.02632   0.68695
H          H       0.64034   0.18219   0.85361
H          H       0.81781   0.45816   0.85361
H          H       0.54184   0.35966   0.85361
H          H       0.64596   0.39839   0.96846
H          H       0.60161   0.24757   0.96846
H          H       0.75243   0.35404   0.96846
H          H       0.31263   0.73172   0.63513
H          H       0.26828   0.58090   0.63513
H          H       0.41910   0.68737   0.63513
H          H       0.97929   0.06506   0.80180
H          H       0.93494   0.91424   0.80180
H          H       0.08576   0.02071   0.80180
H          H       0.35404   0.60161   0.53153
H          H       0.39839   0.75243   0.53153
H          H       0.24757   0.64596   0.53153
H          H       0.02071   0.93494   0.69820
H          H       0.06506   0.08576   0.69820
H          H       0.91424   0.97929   0.69820
H          H       0.68737   0.26828   0.86487
H          H       0.73172   0.41910   0.86487
H          H       0.58090   0.31263   0.86487
H          H       0.82291   0.26191   0.50104
H          H       0.73809   0.56100   0.50104
H          H       0.43900   0.17709   0.50104
H          H       0.48958   0.59524   0.66771
H          H       0.40476   0.89433   0.66771
H          H       0.10567   0.51042   0.66771
H          H       0.15624   0.92858   0.83437
H          H       0.07142   0.22767   0.83437
H          H       0.77233   0.84376   0.83437
H          H       0.17709   0.73809   0.99896
H          H       0.26191   0.43900   0.99896
H          H       0.56100   0.82291   0.99896
H          H       0.84376   0.07142   0.66563
H          H       0.92858   0.77233   0.66563
H          H       0.22767   0.15624   0.66563
H          H       0.51042   0.40476   0.83229
H          H       0.59524   0.10567   0.83229
H          H       0.89433   0.48958   0.83229
H          H       0.85443   0.60654   0.63137
H          H       0.39346   0.24789   0.63137
H          H       0.75211   0.14557   0.63137
H          H       0.52110   0.93987   0.79804
H          H       0.06013   0.58122   0.79804
H          H       0.41878   0.47890   0.79804
H          H       0.18776   0.27321   0.96470
H          H       0.72679   0.91456   0.96470
H          H       0.08544   0.81224   0.96470
H          H       0.14557   0.39346   0.86863
H          H       0.60654   0.75211   0.86863
H          H       0.24789   0.85443   0.86863
H          H       0.81224   0.72679   0.53530
H          H       0.27321   0.08544   0.53530
H          H       0.91456   0.18776   0.53530
H          H       0.47890   0.06013   0.70196
H          H       0.93987   0.41878   0.70196
H          H       0.58122   0.52110   0.70196
H          H       0.90615   0.68900   0.66874
H          H       0.31100   0.21715   0.66874
H          H       0.78285   0.09385   0.66874
H          H       0.57282   0.02233   0.83541
H          H       0.97767   0.55048   0.83541
H          H       0.44952   0.42718   0.83541
H          H       0.23948   0.35567   0.50207
H          H       0.64433   0.88382   0.50207
H          H       0.11618   0.76052   0.50207
H          H       0.09385   0.31100   0.83126
H          H       0.68900   0.78285   0.83126
H          H       0.21715   0.90615   0.83126
H          H       0.76052   0.64433   0.99793
H          H       0.35567   0.11618   0.99793
H          H       0.88382   0.23948   0.99793
H          H       0.42718   0.97767   0.66459
H          H       0.02233   0.44952   0.66459
H          H       0.55048   0.57282   0.66459
N          N       0.66667   0.33333   0.53692
N          N       0.33334   0.66666   0.70358
N          N       0.00000   1.00000   0.87025
N          N       0.33333   0.66667   0.96308
N          N       1.00000   0.00000   0.62975
N          N       0.66666   0.33334   0.79642
