data_crystal

_cell_length_a    30.47280
_cell_length_b    30.47280
_cell_length_c    7.01220
_cell_angle_alpha 90.00000
_cell_angle_beta  90.00000
_cell_angle_gamma 120.00000

_space_group_name_Hall 'P 1'
_space_group_name_H-M_alt 'P 1'

loop_
_symmetry_equiv_pos_as_xyz
 'x,y,z'

loop_
_atom_site_label
_atom_site_type_symbol
_atom_site_fract_x
_atom_site_fract_y
_atom_site_fract_z
C          C       0.61161   0.30972   0.00000
C          C       0.69028   0.30189   0.00000
C          C       0.69811   0.38839   0.00000
C          C       0.38839   0.69028   0.00000
C          C       0.30972   0.69811   0.00000
C          C       0.30189   0.61161   0.00000
C          C       0.63448   0.27704   0.00000
C          C       0.72296   0.35744   0.00000
C          C       0.64256   0.36552   0.00000
C          C       0.36552   0.72296   0.00000
C          C       0.27704   0.64256   0.00000
C          C       0.35744   0.63448   0.00000
C          C       0.62370   0.39742   0.00000
C          C       0.60258   0.22628   0.00000
C          C       0.77372   0.37630   0.00000
C          C       0.37630   0.60258   0.00000
C          C       0.39742   0.77372   0.00000
C          C       0.22628   0.62370   0.00000
N          N       0.57124   0.38320   0.00000
N          N       0.61680   0.18804   0.00000
N          N       0.81196   0.42876   0.00000
N          N       0.42876   0.61680   0.00000
N          N       0.38320   0.81196   0.00000
N          N       0.18804   0.57124   0.00000
C          C       0.55240   0.41776   0.00000
C          C       0.58224   0.13464   0.00000
C          C       0.86536   0.44760   0.00000
C          C       0.44760   0.58224   0.00000
C          C       0.41776   0.86536   0.00000
C          C       0.13464   0.55240   0.00000
C          C       0.58369   0.47008   0.00000
C          C       0.52992   0.11361   0.00000
C          C       0.88639   0.41631   0.00000
C          C       0.41631   0.52992   0.00000
C          C       0.47008   0.88639   0.00000
C          C       0.11361   0.58369   0.00000
C          C       0.56343   0.50185   0.00000
C          C       0.49815   0.06158   0.00000
C          C       0.93842   0.43657   0.00000
C          C       0.43657   0.49815   0.00000
C          C       0.50185   0.93842   0.00000
C          C       0.06158   0.56343   0.00000
C          C       0.51099   0.48276   0.00000
C          C       0.51724   0.02823   0.00000
C          C       0.97177   0.48901   0.00000
C          C       0.48901   0.51724   0.00000
C          C       0.48276   0.97177   0.00000
C          C       0.02823   0.51099   0.00000
C          C       0.48008   0.42995   0.00000
C          C       0.57005   0.05013   0.00000
C          C       0.94987   0.51992   0.00000
C          C       0.51992   0.57005   0.00000
C          C       0.42995   0.94987   0.00000
C          C       0.05013   0.48008   0.00000
C          C       0.50051   0.39838   0.00000
C          C       0.60162   0.10213   0.00000
C          C       0.89787   0.49949   0.00000
C          C       0.49949   0.60162   0.00000
C          C       0.39838   0.89787   0.00000
C          C       0.10213   0.50051   0.00000
O          O       0.56610   0.28940   0.00000
O          O       0.71060   0.27670   0.00000
O          O       0.72330   0.43390   0.00000
O          O       0.43390   0.71060   0.00000
O          O       0.28940   0.72330   0.00000
O          O       0.27670   0.56610   0.00000
H          H       0.65067   0.43698   0.00000
H          H       0.56302   0.21369   0.00000
H          H       0.78631   0.34933   0.00000
H          H       0.34933   0.56302   0.00000
H          H       0.43698   0.78631   0.00000
H          H       0.21369   0.65067   0.00000
H          H       0.62392   0.48754   0.00000
H          H       0.51246   0.13638   0.00000
H          H       0.86362   0.37608   0.00000
H          H       0.37608   0.51246   0.00000
H          H       0.48754   0.86362   0.00000
H          H       0.13638   0.62392   0.00000
H          H       0.59012   0.54135   0.00000
H          H       0.45865   0.04877   0.00000
H          H       0.95123   0.40988   0.00000
H          H       0.40988   0.45865   0.00000
H          H       0.54135   0.95123   0.00000
H          H       0.04877   0.59012   0.00000
H          H       0.43983   0.41162   0.00000
H          H       0.58838   0.02821   0.00000
H          H       0.97179   0.56017   0.00000
H          H       0.56017   0.58838   0.00000
H          H       0.41162   0.97179   0.00000
H          H       0.02821   0.43983   0.00000
H          H       0.47543   0.35822   0.00000
H          H       0.64178   0.11721   0.00000
H          H       0.88279   0.52457   0.00000
H          H       0.52457   0.64178   0.00000
H          H       0.35822   0.88279   0.00000
H          H       0.11721   0.47543   0.00000
H          H       0.54362   0.34560   0.00000
H          H       0.65440   0.19802   0.00000
H          H       0.80198   0.45638   0.00000
H          H       0.45638   0.65440   0.00000
H          H       0.34560   0.80198   0.00000
H          H       0.19802   0.54362   0.00000
C          C       0.61161   0.30972   0.50000
C          C       0.69028   0.30189   0.50000
C          C       0.69811   0.38839   0.50000
C          C       0.38839   0.69028   0.50000
C          C       0.30972   0.69811   0.50000
C          C       0.30189   0.61161   0.50000
C          C       0.63448   0.27704   0.50000
C          C       0.72296   0.35744   0.50000
C          C       0.64256   0.36552   0.50000
C          C       0.36552   0.72296   0.50000
C          C       0.27704   0.64256   0.50000
C          C       0.35744   0.63448   0.50000
C          C       0.62370   0.39742   0.50000
C          C       0.60258   0.22628   0.50000
C          C       0.77372   0.37630   0.50000
C          C       0.37630   0.60258   0.50000
C          C       0.39742   0.77372   0.50000
C          C       0.22628   0.62370   0.50000
N          N       0.57124   0.38320   0.50000
N          N       0.61680   0.18804   0.50000
N          N       0.81196   0.42876   0.50000
N          N       0.42876   0.61680   0.50000
N          N       0.38320   0.81196   0.50000
N          N       0.18804   0.57124   0.50000
C          C       0.55240   0.41776   0.50000
C          C       0.58224   0.13464   0.50000
C          C       0.86536   0.44760   0.50000
C          C       0.44760   0.58224   0.50000
C          C       0.41776   0.86536   0.50000
C          C       0.13464   0.55240   0.50000
C          C       0.58369   0.47008   0.50000
C          C       0.52992   0.11361   0.50000
C          C       0.88639   0.41631   0.50000
C          C       0.41631   0.52992   0.50000
C          C       0.47008   0.88639   0.50000
C          C       0.11361   0.58369   0.50000
C          C       0.56343   0.50185   0.50000
C          C       0.49815   0.06158   0.50000
C          C       0.93842   0.43657   0.50000
C          C       0.43657   0.49815   0.50000
C          C       0.50185   0.93842   0.50000
C          C       0.06158   0.56343   0.50000
C          C       0.51099   0.48276   0.50000
C          C       0.51724   0.02823   0.50000
C          C       0.97177   0.48901   0.50000
C          C       0.48901   0.51724   0.50000
C          C       0.48276   0.97177   0.50000
C          C       0.02823   0.51099   0.50000
C          C       0.48008   0.42995   0.50000
C          C       0.57005   0.05013   0.50000
C          C       0.94987   0.51992   0.50000
C          C       0.51992   0.57005   0.50000
C          C       0.42995   0.94987   0.50000
C          C       0.05013   0.48008   0.50000
C          C       0.50051   0.39838   0.50000
C          C       0.60162   0.10213   0.50000
C          C       0.89787   0.49949   0.50000
C          C       0.49949   0.60162   0.50000
C          C       0.39838   0.89787   0.50000
C          C       0.10213   0.50051   0.50000
O          O       0.56610   0.28940   0.50000
O          O       0.71060   0.27670   0.50000
O          O       0.72330   0.43390   0.50000
O          O       0.43390   0.71060   0.50000
O          O       0.28940   0.72330   0.50000
O          O       0.27670   0.56610   0.50000
H          H       0.65067   0.43698   0.50000
H          H       0.56302   0.21369   0.50000
H          H       0.78631   0.34933   0.50000
H          H       0.34933   0.56302   0.50000
H          H       0.43698   0.78631   0.50000
H          H       0.21369   0.65067   0.50000
H          H       0.62392   0.48754   0.50000
H          H       0.51246   0.13638   0.50000
H          H       0.86362   0.37608   0.50000
H          H       0.37608   0.51246   0.50000
H          H       0.48754   0.86362   0.50000
H          H       0.13638   0.62392   0.50000
H          H       0.59012   0.54135   0.50000
H          H       0.45865   0.04877   0.50000
H          H       0.95123   0.40988   0.50000
H          H       0.40988   0.45865   0.50000
H          H       0.54135   0.95123   0.50000
H          H       0.04877   0.59012   0.50000
H          H       0.43983   0.41162   0.50000
H          H       0.58838   0.02821   0.50000
H          H       0.97179   0.56017   0.50000
H          H       0.56017   0.58838   0.50000
H          H       0.41162   0.97179   0.50000
H          H       0.02821   0.43983   0.50000
H          H       0.47543   0.35822   0.50000
H          H       0.64178   0.11721   0.50000
H          H       0.88279   0.52457   0.50000
H          H       0.52457   0.64178   0.50000
H          H       0.35822   0.88279   0.50000
H          H       0.11721   0.47543   0.50000
H          H       0.54362   0.34560   0.50000
H          H       0.65440   0.19802   0.50000
H          H       0.80198   0.45638   0.50000
H          H       0.45638   0.65440   0.50000
H          H       0.34560   0.80198   0.50000
H          H       0.19802   0.54362   0.50000
