data_crystal

_cell_length_a    28.04960
_cell_length_b    2.68790
_cell_length_c    60.80820
_cell_angle_alpha 90.00000
_cell_angle_beta  81.74810
_cell_angle_gamma 90.00000

_space_group_name_Hall 'P 1'
_space_group_name_H-M_alt 'P 1'

loop_
_symmetry_equiv_pos_as_xyz
 'x,y,z'

loop_
_atom_site_label
_atom_site_type_symbol
_atom_site_fract_x
_atom_site_fract_y
_atom_site_fract_z
C          C       0.49714   0.00000   0.21765
C          C       0.50286   0.00000   0.28235
C          C       0.48299   0.00000   0.24137
C          C       0.51701   0.00000   0.25863
C          C       0.56466   0.00000   0.25192
C          C       0.43534   0.00000   0.24808
C          C       0.57518   0.00000   0.22877
C          C       0.42482   0.00000   0.27123
C          C       0.54359   0.00000   0.21275
C          C       0.45641   0.00000   0.28725
C          C       0.46461   0.00000   0.20025
C          C       0.53539   0.00000   0.29975
C          C       0.41897   0.00000   0.20888
C          C       0.58103   0.00000   0.29112
C          C       0.40103   0.00000   0.23156
C          C       0.59897   0.00000   0.26844
C          C       0.47247   0.00000   0.17328
C          C       0.52753   0.00000   0.32672
C          C       0.34693   0.00000   0.23506
C          C       0.65307   0.00000   0.26494
C          C       0.51518   0.00000   0.16021
C          C       0.48482   0.00000   0.33978
C          C       0.51914   0.00000   0.13648
C          C       0.48086   0.00000   0.36352
C          C       0.48145   0.00000   0.12380
C          C       0.51855   0.00000   0.37620
C          C       0.43887   0.00000   0.13526
C          C       0.56113   0.00000   0.36474
C          C       0.43448   0.00000   0.15897
C          C       0.56552   0.00000   0.34103
C          C       0.31894   0.00000   0.21585
C          C       0.68106   0.00000   0.28415
C          C       0.27151   0.00000   0.21773
C          C       0.72849   0.00000   0.28227
C          C       0.24782   0.00000   0.23860
C          C       0.75218   0.00000   0.26140
C          C       0.27251   0.00000   0.25788
C          C       0.72749   0.00000   0.24212
C          C       0.32011   0.00000   0.25620
C          C       0.67989   0.00000   0.24380
N          N       0.80098   0.00000   0.26079
N          N       0.19902   0.00000   0.23921
C          C       0.82910   0.00000   0.24294
C          C       0.17090   0.00000   0.25706
C          C       0.87864   0.00000   0.24524
C          C       0.12136   0.00000   0.25476
C          C       0.89681   0.00000   0.26654
C          C       0.10319   0.00000   0.23346
C          C       0.94378   0.00000   0.26844
C          C       0.05622   0.00000   0.23156
C          C       0.97448   0.00000   0.24901
C          C       0.02552   0.00000   0.25099
C          C       0.95525   0.00000   0.22762
C          C       0.04475   0.00000   0.27238
C          C       0.90824   0.00000   0.22584
C          C       0.09176   0.00000   0.27416
N          N       0.51159   0.00000   0.40051
N          N       0.48841   0.00000   0.09949
C          C       0.54254   0.00000   0.41524
C          C       0.45746   0.00000   0.08476
C          C       0.52969   0.00000   0.43979
C          C       0.47031   0.00000   0.06021
C          C       0.48415   0.00000   0.44797
C          C       0.51585   0.00000   0.05203
C          C       0.47255   0.00000   0.47127
C          C       0.52745   0.00000   0.02873
C          C       0.50623   0.00000   0.48734
C          C       0.49377   0.00000   0.01266
C          C       0.55210   0.00000   0.47864
C          C       0.44790   0.00000   0.02136
C          C       0.56348   0.00000   0.45532
C          C       0.43652   0.00000   0.04468
H          H       0.60760   0.00000   0.22131
H          H       0.39240   0.00000   0.27869
H          H       0.55896   0.00000   0.19665
H          H       0.44104   0.00000   0.30335
H          H       0.39570   0.00000   0.19707
H          H       0.60430   0.00000   0.30293
H          H       0.54809   0.00000   0.16584
H          H       0.45191   0.00000   0.33415
H          H       0.55246   0.00000   0.12767
H          H       0.44754   0.00000   0.37233
H          H       0.40829   0.00000   0.12617
H          H       0.59171   0.00000   0.37383
H          H       0.39928   0.00000   0.16449
H          H       0.60072   0.00000   0.33551
H          H       0.33044   0.00000   0.19833
H          H       0.66956   0.00000   0.30168
H          H       0.25269   0.00000   0.20258
H          H       0.74731   0.00000   0.29742
H          H       0.25548   0.00000   0.27458
H          H       0.74452   0.00000   0.22542
H          H       0.33101   0.00000   0.27270
H          H       0.66899   0.00000   0.22730
H          H       0.81712   0.00000   0.22605
H          H       0.18288   0.00000   0.27395
H          H       0.87449   0.00000   0.28181
H          H       0.12551   0.00000   0.21819
H          H       0.95486   0.00000   0.28542
H          H       0.04514   0.00000   0.21458
H          H       0.97554   0.00000   0.21187
H          H       0.02446   0.00000   0.28813
H          H       0.89495   0.00000   0.20917
H          H       0.10505   0.00000   0.29083
H          H       0.57823   0.00000   0.40996
H          H       0.42177   0.00000   0.09004
H          H       0.45740   0.00000   0.43624
H          H       0.54260   0.00000   0.06376
H          H       0.43682   0.00000   0.47608
H          H       0.56318   0.00000   0.02392
H          H       0.58017   0.00000   0.48939
H          H       0.41983   0.00000   0.01061
H          H       0.59896   0.00000   0.44939
H          H       0.40104   0.00000   0.05061
C          C       0.49714   0.00000   0.71765
C          C       0.50286   0.00000   0.78235
C          C       0.48299   0.00000   0.74137
C          C       0.51701   0.00000   0.75863
C          C       0.56466   0.00000   0.75192
C          C       0.43534   0.00000   0.74808
C          C       0.57518   0.00000   0.72877
C          C       0.42482   0.00000   0.77123
C          C       0.54359   0.00000   0.71275
C          C       0.45641   0.00000   0.78725
C          C       0.46461   0.00000   0.70025
C          C       0.53539   0.00000   0.79975
C          C       0.41897   0.00000   0.70888
C          C       0.58103   0.00000   0.79112
C          C       0.40103   0.00000   0.73156
C          C       0.59897   0.00000   0.76844
C          C       0.47247   0.00000   0.67327
C          C       0.52753   0.00000   0.82673
C          C       0.34693   0.00000   0.73506
C          C       0.65307   0.00000   0.76494
C          C       0.51518   0.00000   0.66021
C          C       0.48482   0.00000   0.83979
C          C       0.51914   0.00000   0.63648
C          C       0.48086   0.00000   0.86352
C          C       0.48145   0.00000   0.62380
C          C       0.51855   0.00000   0.87620
C          C       0.43887   0.00000   0.63526
C          C       0.56113   0.00000   0.86474
C          C       0.43448   0.00000   0.65897
C          C       0.56552   0.00000   0.84103
C          C       0.31894   0.00000   0.71584
C          C       0.68106   0.00000   0.78416
C          C       0.27151   0.00000   0.71773
C          C       0.72849   0.00000   0.78227
C          C       0.24782   0.00000   0.73860
C          C       0.75218   0.00000   0.76140
C          C       0.27251   0.00000   0.75787
C          C       0.72749   0.00000   0.74213
C          C       0.32011   0.00000   0.75620
C          C       0.67989   0.00000   0.74380
N          N       0.80098   0.00000   0.76079
N          N       0.19902   0.00000   0.73921
C          C       0.82910   0.00000   0.74294
C          C       0.17090   0.00000   0.75706
C          C       0.87864   0.00000   0.74525
C          C       0.12136   0.00000   0.75475
C          C       0.89681   0.00000   0.76655
C          C       0.10319   0.00000   0.73345
C          C       0.94378   0.00000   0.76844
C          C       0.05622   0.00000   0.73156
C          C       0.97448   0.00000   0.74901
C          C       0.02552   0.00000   0.75099
C          C       0.95525   0.00000   0.72762
C          C       0.04475   0.00000   0.77238
C          C       0.90824   0.00000   0.72585
C          C       0.09176   0.00000   0.77415
N          N       0.51159   0.00000   0.90051
N          N       0.48841   0.00000   0.59949
C          C       0.54254   0.00000   0.91524
C          C       0.45746   0.00000   0.58476
C          C       0.52969   0.00000   0.93980
C          C       0.47031   0.00000   0.56020
C          C       0.48415   0.00000   0.94797
C          C       0.51585   0.00000   0.55203
C          C       0.47255   0.00000   0.97127
C          C       0.52745   0.00000   0.52873
C          C       0.50623   0.00000   0.98734
C          C       0.49377   0.00000   0.51266
C          C       0.55210   0.00000   0.97864
C          C       0.44790   0.00000   0.52136
C          C       0.56348   0.00000   0.95532
C          C       0.43652   0.00000   0.54468
H          H       0.60760   0.00000   0.72131
H          H       0.39240   0.00000   0.77869
H          H       0.55896   0.00000   0.69665
H          H       0.44104   0.00000   0.80335
H          H       0.39570   0.00000   0.69707
H          H       0.60430   0.00000   0.80293
H          H       0.54809   0.00000   0.66584
H          H       0.45191   0.00000   0.83416
H          H       0.55246   0.00000   0.62767
H          H       0.44754   0.00000   0.87233
H          H       0.40829   0.00000   0.62617
H          H       0.59171   0.00000   0.87383
H          H       0.39928   0.00000   0.66449
H          H       0.60072   0.00000   0.83551
H          H       0.33044   0.00000   0.69832
H          H       0.66956   0.00000   0.80168
H          H       0.25269   0.00000   0.70257
H          H       0.74731   0.00000   0.79743
H          H       0.25548   0.00000   0.77458
H          H       0.74452   0.00000   0.72542
H          H       0.33101   0.00000   0.77270
H          H       0.66899   0.00000   0.72730
H          H       0.81712   0.00000   0.72605
H          H       0.18288   0.00000   0.77395
H          H       0.87449   0.00000   0.78181
H          H       0.12551   0.00000   0.71819
H          H       0.95486   0.00000   0.78543
H          H       0.04514   0.00000   0.71458
H          H       0.97554   0.00000   0.71187
H          H       0.02446   0.00000   0.78813
H          H       0.89495   0.00000   0.70917
H          H       0.10505   0.00000   0.79083
H          H       0.57823   0.00000   0.90996
H          H       0.42177   0.00000   0.59004
H          H       0.45740   0.00000   0.93624
H          H       0.54260   0.00000   0.56376
H          H       0.43682   0.00000   0.97608
H          H       0.56318   0.00000   0.52392
H          H       0.58017   0.00000   0.98938
H          H       0.41983   0.00000   0.51062
H          H       0.59896   0.00000   0.94939
H          H       0.40104   0.00000   0.55061
