data_crystal

_cell_length_a    14.96740
_cell_length_b    14.96740
_cell_length_c    6.47640
_cell_angle_alpha 90.00000
_cell_angle_beta  90.00000
_cell_angle_gamma 120.00000

_space_group_name_Hall 'P 1'
_space_group_name_H-M_alt 'P 1'

loop_
_symmetry_equiv_pos_as_xyz
 'x,y,z'

loop_
_atom_site_label
_atom_site_type_symbol
_atom_site_fract_x
_atom_site_fract_y
_atom_site_fract_z
N          N       0.45967   0.95221   0.00000
N          N       0.04779   0.50746   0.00000
N          N       0.49254   0.54033   0.00000
N          N       0.54033   0.04779   0.00000
N          N       0.95221   0.49254   0.00000
N          N       0.50746   0.45967   0.00000
C          C       0.52445   0.12978   0.00000
C          C       0.87022   0.39467   0.00000
C          C       0.60533   0.47555   0.00000
C          C       0.47555   0.87022   0.00000
C          C       0.12978   0.60533   0.00000
C          C       0.39467   0.52445   0.00000
C          C       0.40548   0.77407   0.00000
C          C       0.22593   0.63141   0.00000
C          C       0.36859   0.59452   0.00000
C          C       0.59452   0.22593   0.00000
C          C       0.77407   0.36859   0.00000
C          C       0.63141   0.40548   0.00000
C          C       0.29871   0.73721   0.00000
C          C       0.26279   0.56150   0.00000
C          C       0.43850   0.70129   0.00000
C          C       0.70129   0.26279   0.00000
C          C       0.73721   0.43850   0.00000
C          C       0.56150   0.29871   0.00000
H          H       0.44864   0.11157   0.00000
H          H       0.88843   0.33707   0.00000
H          H       0.66293   0.55136   0.00000
H          H       0.55136   0.88843   0.00000
H          H       0.11157   0.66293   0.00000
H          H       0.33707   0.44864   0.00000
O          O       0.26852   0.79416   0.00000
O          O       0.20584   0.47436   0.00000
O          O       0.52564   0.73148   0.00000
O          O       0.73148   0.20584   0.00000
O          O       0.79416   0.52564   0.00000
O          O       0.47436   0.26852   0.00000
H          H       0.38961   0.94301   0.00000
H          H       0.05699   0.44660   0.00000
H          H       0.55340   0.61039   0.00000
H          H       0.61039   0.05699   0.00000
H          H       0.94301   0.55340   0.00000
H          H       0.44660   0.38961   0.00000
N          N       0.45967   0.95221   0.50000
N          N       0.04779   0.50746   0.50000
N          N       0.49254   0.54033   0.50000
N          N       0.54033   0.04779   0.50000
N          N       0.95221   0.49254   0.50000
N          N       0.50746   0.45967   0.50000
C          C       0.52445   0.12978   0.50000
C          C       0.87022   0.39467   0.50000
C          C       0.60533   0.47555   0.50000
C          C       0.47555   0.87022   0.50000
C          C       0.12978   0.60533   0.50000
C          C       0.39467   0.52445   0.50000
C          C       0.40548   0.77407   0.50000
C          C       0.22593   0.63141   0.50000
C          C       0.36859   0.59452   0.50000
C          C       0.59452   0.22593   0.50000
C          C       0.77407   0.36859   0.50000
C          C       0.63141   0.40548   0.50000
C          C       0.29871   0.73721   0.50000
C          C       0.26279   0.56150   0.50000
C          C       0.43850   0.70129   0.50000
C          C       0.70129   0.26279   0.50000
C          C       0.73721   0.43850   0.50000
C          C       0.56150   0.29871   0.50000
H          H       0.44864   0.11157   0.50000
H          H       0.88843   0.33707   0.50000
H          H       0.66293   0.55136   0.50000
H          H       0.55136   0.88843   0.50000
H          H       0.11157   0.66293   0.50000
H          H       0.33707   0.44864   0.50000
O          O       0.26852   0.79416   0.50000
O          O       0.20584   0.47436   0.50000
O          O       0.52564   0.73148   0.50000
O          O       0.73148   0.20584   0.50000
O          O       0.79416   0.52564   0.50000
O          O       0.47436   0.26852   0.50000
H          H       0.38961   0.94301   0.50000
H          H       0.05699   0.44660   0.50000
H          H       0.55340   0.61039   0.50000
H          H       0.61039   0.05699   0.50000
H          H       0.94301   0.55340   0.50000
H          H       0.44660   0.38961   0.50000
