data_crystal

_cell_length_a    19.66660
_cell_length_b    19.66660
_cell_length_c    7.17020
_cell_angle_alpha 90.00000
_cell_angle_beta  90.00000
_cell_angle_gamma 120.00000

_space_group_name_Hall 'P 1'
_space_group_name_H-M_alt 'P 1'

loop_
_symmetry_equiv_pos_as_xyz
 'x,y,z'

loop_
_atom_site_label
_atom_site_type_symbol
_atom_site_fract_x
_atom_site_fract_y
_atom_site_fract_z
C          C       0.71558   0.41651   0.00000
C          C       0.58349   0.29907   0.00000
C          C       0.70093   0.28442   0.00000
C          C       0.63138   0.38372   0.00000
C          C       0.61628   0.24766   0.00000
C          C       0.75234   0.36862   0.00000
C          C       0.56250   0.15624   0.00000
C          C       0.84376   0.40626   0.00000
C          C       0.59374   0.43750   0.00000
C          C       0.64137   0.52263   0.00000
C          C       0.47737   0.11874   0.00000
C          C       0.88126   0.35863   0.00000
C          C       0.60659   0.57150   0.00000
C          C       0.42850   0.03509   0.00000
C          C       0.96491   0.39341   0.00000
C          C       0.52313   0.53849   0.00000
C          C       0.46151   0.98464   0.00000
C          C       0.01536   0.47687   0.00000
C          C       0.47475   0.45442   0.00000
C          C       0.54558   0.02033   0.00000
C          C       0.97967   0.52525   0.00000
C          C       0.50915   0.40512   0.00000
C          C       0.59488   0.10403   0.00000
C          C       0.89597   0.49085   0.00000
N          N       0.49082   0.59217   0.00000
N          N       0.40783   0.89865   0.00000
N          N       0.10135   0.50918   0.00000
C          C       0.16116   0.59392   0.00000
C          C       0.40608   0.56724   0.00000
C          C       0.43276   0.83884   0.00000
C          C       0.37397   0.61685   0.00000
C          C       0.38315   0.75712   0.00000
C          C       0.24288   0.62603   0.00000
C          C       0.42187   0.70652   0.00000
C          C       0.29348   0.71535   0.00000
C          C       0.28465   0.57813   0.00000
H          H       0.70598   0.55430   0.00000
H          H       0.44570   0.15168   0.00000
H          H       0.84832   0.29402   0.00000
H          H       0.64542   0.63618   0.00000
H          H       0.36382   0.00924   0.00000
H          H       0.99076   0.35458   0.00000
H          H       0.41009   0.42500   0.00000
H          H       0.57500   0.98509   0.00000
H          H       0.01491   0.58991   0.00000
H          H       0.46688   0.34167   0.00000
H          H       0.65833   0.12521   0.00000
H          H       0.87479   0.53312   0.00000
H          H       0.13964   0.63617   0.00000
H          H       0.36383   0.50347   0.00000
H          H       0.49653   0.86036   0.00000
O          O       0.49502   0.74076   0.00000
O          O       0.25924   0.75426   0.00000
O          O       0.24574   0.50498   0.00000
H          H       0.75283   0.47985   0.00000
H          H       0.52015   0.27298   0.00000
H          H       0.72702   0.24717   0.00000
H          H       0.53381   0.65302   0.00000
H          H       0.34698   0.88079   0.00000
H          H       0.11921   0.46619   0.00000
C          C       0.71558   0.41651   0.50000
C          C       0.58349   0.29907   0.50000
C          C       0.70093   0.28442   0.50000
C          C       0.63138   0.38372   0.50000
C          C       0.61628   0.24766   0.50000
C          C       0.75234   0.36862   0.50000
C          C       0.56250   0.15624   0.50000
C          C       0.84376   0.40626   0.50000
C          C       0.59374   0.43750   0.50000
C          C       0.64137   0.52263   0.50000
C          C       0.47737   0.11874   0.50000
C          C       0.88126   0.35863   0.50000
C          C       0.60659   0.57150   0.50000
C          C       0.42850   0.03509   0.50000
C          C       0.96491   0.39341   0.50000
C          C       0.52313   0.53849   0.50000
C          C       0.46151   0.98464   0.50000
C          C       0.01536   0.47687   0.50000
C          C       0.47475   0.45442   0.50000
C          C       0.54558   0.02033   0.50000
C          C       0.97967   0.52525   0.50000
C          C       0.50915   0.40512   0.50000
C          C       0.59488   0.10403   0.50000
C          C       0.89597   0.49085   0.50000
N          N       0.49082   0.59217   0.50000
N          N       0.40783   0.89865   0.50000
N          N       0.10135   0.50918   0.50000
C          C       0.16116   0.59392   0.50000
C          C       0.40608   0.56724   0.50000
C          C       0.43276   0.83884   0.50000
C          C       0.37397   0.61685   0.50000
C          C       0.38315   0.75712   0.50000
C          C       0.24288   0.62603   0.50000
C          C       0.42187   0.70652   0.50000
C          C       0.29348   0.71535   0.50000
C          C       0.28465   0.57813   0.50000
H          H       0.70598   0.55430   0.50000
H          H       0.44570   0.15168   0.50000
H          H       0.84832   0.29402   0.50000
H          H       0.64542   0.63618   0.50000
H          H       0.36382   0.00924   0.50000
H          H       0.99076   0.35458   0.50000
H          H       0.41009   0.42500   0.50000
H          H       0.57500   0.98509   0.50000
H          H       0.01491   0.58991   0.50000
H          H       0.46688   0.34167   0.50000
H          H       0.65833   0.12521   0.50000
H          H       0.87479   0.53312   0.50000
H          H       0.13964   0.63617   0.50000
H          H       0.36383   0.50347   0.50000
H          H       0.49653   0.86036   0.50000
O          O       0.49502   0.74076   0.50000
O          O       0.25924   0.75426   0.50000
O          O       0.24574   0.50498   0.50000
H          H       0.75283   0.47985   0.50000
H          H       0.52015   0.27298   0.50000
H          H       0.72702   0.24717   0.50000
H          H       0.53381   0.65302   0.50000
H          H       0.34698   0.88079   0.50000
H          H       0.11921   0.46619   0.50000
