data_crystal

_cell_length_a    24.51560
_cell_length_b    24.06500
_cell_length_c    8.17760
_cell_angle_alpha 90.00000
_cell_angle_beta  90.00000
_cell_angle_gamma 89.84910

_space_group_name_Hall 'P 1'
_space_group_name_H-M_alt 'P 1'

loop_
_symmetry_equiv_pos_as_xyz
 'x,y,z'

loop_
_atom_site_label
_atom_site_type_symbol
_atom_site_fract_x
_atom_site_fract_y
_atom_site_fract_z
C          C       0.41148   0.55224   0.08446
C          C       0.58852   0.44776   0.08446
C          C       0.42360   0.49590   0.05888
C          C       0.57640   0.50410   0.05888
C          C       0.47911   0.47952   0.05633
C          C       0.52089   0.52048   0.05633
C          C       0.50695   0.57765   0.05588
C          C       0.49305   0.42235   0.05588
C          C       0.45223   0.59232   0.08130
C          C       0.54777   0.40768   0.08130
C          C       0.38225   0.45519   0.04109
C          C       0.61775   0.54481   0.04109
C          C       0.39742   0.39950   0.02334
C          C       0.60258   0.60050   0.02334
C          C       0.45160   0.38186   0.03568
C          C       0.54840   0.61814   0.03568
C          C       0.32271   0.46788   0.03742
C          C       0.67729   0.53212   0.03742
C          C       0.46214   0.32098   0.01962
C          C       0.53786   0.67902   0.01962
C          C       0.30133   0.51093   0.44082
C          C       0.69867   0.48907   0.44082
C          C       0.24523   0.52130   0.43834
C          C       0.75477   0.47870   0.43834
C          C       0.20930   0.48705   0.02405
C          C       0.79070   0.51295   0.02405
C          C       0.23024   0.44317   0.11786
C          C       0.76976   0.55683   0.11786
C          C       0.28634   0.43401   0.12515
C          C       0.71366   0.56599   0.12515
C          C       0.57266   0.71729   0.09691
C          C       0.42734   0.28271   0.09691
C          C       0.56699   0.77423   0.06933
C          C       0.43301   0.22577   0.06933
C          C       0.52598   0.79434   0.46748
C          C       0.47402   0.20566   0.46748
C          C       0.49020   0.75663   0.39233
C          C       0.50980   0.24337   0.39233
C          C       0.49685   0.69949   0.41612
C          C       0.50315   0.30051   0.41612
N          N       0.52489   0.85283   0.43656
N          N       0.47511   0.14717   0.43656
N          N       0.84771   0.50044   0.01843
N          N       0.15229   0.49956   0.01843
C          C       0.48806   0.88119   0.35964
C          C       0.51194   0.11881   0.35964
C          C       0.49469   0.94173   0.34290
C          C       0.50531   0.05827   0.34290
C          C       0.88715   0.53463   0.05014
C          C       0.11285   0.46537   0.05014
C          C       0.94454   0.51602   0.04608
C          C       0.05546   0.48398   0.04608
C          C       0.54653   0.96624   0.33716
C          C       0.45347   0.03376   0.33716
C          C       0.55160   0.02465   0.33680
C          C       0.44840   0.97535   0.33680
C          C       0.95880   0.45952   0.04631
C          C       0.04120   0.54048   0.04631
C          C       0.01424   0.44385   0.04652
C          C       0.98576   0.55615   0.04652
H          H       0.37041   0.56622   0.10708
H          H       0.62959   0.43378   0.10708
H          H       0.44011   0.63493   0.09982
H          H       0.55989   0.36507   0.09982
H          H       0.36605   0.36901   0.49846
H          H       0.63395   0.63099   0.49846
H          H       0.32787   0.53602   0.36558
H          H       0.67213   0.46398   0.36558
H          H       0.22895   0.55516   0.36603
H          H       0.77105   0.44484   0.36603
H          H       0.20376   0.41728   0.19073
H          H       0.79624   0.58272   0.19073
H          H       0.30154   0.40092   0.20233
H          H       0.69846   0.59908   0.20233
H          H       0.60445   0.70311   0.17858
H          H       0.39555   0.29689   0.17858
H          H       0.59466   0.80345   0.12685
H          H       0.40534   0.19655   0.12685
H          H       0.45911   0.77057   0.30861
H          H       0.54089   0.22943   0.30861
H          H       0.47116   0.67117   0.34895
H          H       0.52884   0.32883   0.34895
H          H       0.45063   0.86200   0.31806
H          H       0.54937   0.13800   0.31806
H          H       0.87873   0.57804   0.07503
H          H       0.12127   0.42196   0.07503
F          F       0.59120   0.93321   0.32860
F          F       0.40880   0.06679   0.32860
F          F       0.91914   0.42037   0.05105
F          F       0.08086   0.57963   0.05105
F          F       0.60104   0.04982   0.33478
F          F       0.39896   0.95018   0.33478
F          F       0.97077   0.61039   0.04811
F          F       0.02923   0.38961   0.04811
C          C       0.41148   0.55224   0.58446
C          C       0.58852   0.44776   0.58446
C          C       0.42360   0.49590   0.55888
C          C       0.57640   0.50410   0.55888
C          C       0.47911   0.47952   0.55632
C          C       0.52089   0.52048   0.55632
C          C       0.50695   0.57765   0.55588
C          C       0.49305   0.42235   0.55588
C          C       0.45223   0.59232   0.58129
C          C       0.54777   0.40768   0.58129
C          C       0.38225   0.45519   0.54109
C          C       0.61775   0.54481   0.54109
C          C       0.39742   0.39950   0.52334
C          C       0.60258   0.60050   0.52334
C          C       0.45160   0.38186   0.53568
C          C       0.54840   0.61814   0.53568
C          C       0.32271   0.46788   0.53742
C          C       0.67729   0.53212   0.53742
C          C       0.46214   0.32098   0.51961
C          C       0.53786   0.67902   0.51961
C          C       0.30133   0.51093   0.94082
C          C       0.69867   0.48907   0.94082
C          C       0.24523   0.52130   0.93834
C          C       0.75477   0.47870   0.93834
C          C       0.20930   0.48705   0.52405
C          C       0.79070   0.51295   0.52405
C          C       0.23024   0.44317   0.61786
C          C       0.76976   0.55683   0.61786
C          C       0.28634   0.43401   0.62515
C          C       0.71366   0.56599   0.62515
C          C       0.57266   0.71729   0.59691
C          C       0.42734   0.28271   0.59691
C          C       0.56699   0.77423   0.56933
C          C       0.43301   0.22577   0.56933
C          C       0.52598   0.79434   0.96748
C          C       0.47402   0.20566   0.96748
C          C       0.49020   0.75663   0.89233
C          C       0.50980   0.24337   0.89233
C          C       0.49685   0.69949   0.91612
C          C       0.50315   0.30051   0.91612
N          N       0.52489   0.85283   0.93656
N          N       0.47511   0.14717   0.93656
N          N       0.84771   0.50044   0.51843
N          N       0.15229   0.49956   0.51843
C          C       0.48806   0.88119   0.85964
C          C       0.51194   0.11881   0.85964
C          C       0.49469   0.94173   0.84290
C          C       0.50531   0.05827   0.84290
C          C       0.88715   0.53463   0.55014
C          C       0.11285   0.46537   0.55014
C          C       0.94454   0.51602   0.54608
C          C       0.05546   0.48398   0.54608
C          C       0.54653   0.96624   0.83716
C          C       0.45347   0.03376   0.83716
C          C       0.55160   0.02465   0.83680
C          C       0.44840   0.97535   0.83680
C          C       0.95880   0.45952   0.54631
C          C       0.04120   0.54048   0.54631
C          C       0.01424   0.44385   0.54651
C          C       0.98576   0.55615   0.54651
H          H       0.37041   0.56622   0.60708
H          H       0.62959   0.43378   0.60708
H          H       0.44011   0.63493   0.59981
H          H       0.55989   0.36507   0.59981
H          H       0.36605   0.36901   0.99846
H          H       0.63395   0.63099   0.99846
H          H       0.32787   0.53602   0.86558
H          H       0.67213   0.46398   0.86558
H          H       0.22895   0.55516   0.86603
H          H       0.77105   0.44484   0.86603
H          H       0.20376   0.41728   0.69072
H          H       0.79624   0.58272   0.69072
H          H       0.30154   0.40092   0.70233
H          H       0.69846   0.59908   0.70233
H          H       0.60445   0.70311   0.67858
H          H       0.39555   0.29689   0.67858
H          H       0.59466   0.80345   0.62685
H          H       0.40534   0.19655   0.62685
H          H       0.45911   0.77057   0.80861
H          H       0.54089   0.22943   0.80861
H          H       0.47116   0.67117   0.84895
H          H       0.52884   0.32883   0.84895
H          H       0.45063   0.86200   0.81806
H          H       0.54937   0.13800   0.81806
H          H       0.87873   0.57804   0.57503
H          H       0.12127   0.42196   0.57503
F          F       0.59120   0.93321   0.82860
F          F       0.40880   0.06679   0.82860
F          F       0.91914   0.42037   0.55105
F          F       0.08086   0.57963   0.55105
F          F       0.60104   0.04982   0.83478
F          F       0.39896   0.95018   0.83478
F          F       0.97077   0.61039   0.54811
F          F       0.02923   0.38961   0.54811
