data_crystal

_cell_length_a    15.27770
_cell_length_b    15.27770
_cell_length_c    7.03620
_cell_angle_alpha 90.00000
_cell_angle_beta  90.00000
_cell_angle_gamma 120.00000

_space_group_name_Hall 'P 1'
_space_group_name_H-M_alt 'P 1'

loop_
_symmetry_equiv_pos_as_xyz
 'x,y,z'

loop_
_atom_site_label
_atom_site_type_symbol
_atom_site_fract_x
_atom_site_fract_y
_atom_site_fract_z
N          N       0.46225   0.94887   0.00000
N          N       0.05113   0.51338   0.00000
N          N       0.48662   0.53775   0.00000
N          N       0.53775   0.05113   0.00000
N          N       0.94887   0.48662   0.00000
N          N       0.51338   0.46225   0.00000
C          C       0.51382   0.12156   0.00000
C          C       0.87844   0.39226   0.00000
C          C       0.60774   0.48618   0.00000
C          C       0.48618   0.87844   0.00000
C          C       0.12156   0.60774   0.00000
C          C       0.39226   0.51382   0.00000
C          C       0.40735   0.77025   0.00000
C          C       0.22975   0.63710   0.00000
C          C       0.36290   0.59265   0.00000
C          C       0.59265   0.22975   0.00000
C          C       0.77025   0.36290   0.00000
C          C       0.63710   0.40735   0.00000
C          C       0.30384   0.74010   0.00000
C          C       0.25990   0.56374   0.00000
C          C       0.43626   0.69616   0.00000
C          C       0.69616   0.25990   0.00000
C          C       0.74010   0.43626   0.00000
C          C       0.56374   0.30384   0.00000
H          H       0.43460   0.10075   0.00000
H          H       0.89925   0.33385   0.00000
H          H       0.66615   0.56540   0.00000
H          H       0.56540   0.89925   0.00000
H          H       0.10075   0.66615   0.00000
H          H       0.33385   0.43460   0.00000
H          H       0.28098   0.79698   0.00000
H          H       0.20302   0.48400   0.00000
H          H       0.51600   0.71902   0.00000
H          H       0.71902   0.20302   0.00000
H          H       0.79698   0.51600   0.00000
H          H       0.48400   0.28098   0.00000
N          N       0.46225   0.94887   0.50000
N          N       0.05113   0.51338   0.50000
N          N       0.48662   0.53775   0.50000
N          N       0.53775   0.05113   0.50000
N          N       0.94887   0.48662   0.50000
N          N       0.51338   0.46225   0.50000
C          C       0.51382   0.12156   0.50000
C          C       0.87844   0.39226   0.50000
C          C       0.60774   0.48618   0.50000
C          C       0.48618   0.87844   0.50000
C          C       0.12156   0.60774   0.50000
C          C       0.39226   0.51382   0.50000
C          C       0.40735   0.77025   0.50000
C          C       0.22975   0.63710   0.50000
C          C       0.36290   0.59265   0.50000
C          C       0.59265   0.22975   0.50000
C          C       0.77025   0.36290   0.50000
C          C       0.63710   0.40735   0.50000
C          C       0.30384   0.74010   0.50000
C          C       0.25990   0.56374   0.50000
C          C       0.43626   0.69616   0.50000
C          C       0.69616   0.25990   0.50000
C          C       0.74010   0.43626   0.50000
C          C       0.56374   0.30384   0.50000
H          H       0.43460   0.10075   0.50000
H          H       0.89925   0.33385   0.50000
H          H       0.66615   0.56540   0.50000
H          H       0.56540   0.89925   0.50000
H          H       0.10075   0.66615   0.50000
H          H       0.33385   0.43460   0.50000
H          H       0.28098   0.79698   0.50000
H          H       0.20302   0.48400   0.50000
H          H       0.51600   0.71902   0.50000
H          H       0.71902   0.20302   0.50000
H          H       0.79698   0.51600   0.50000
H          H       0.48400   0.28098   0.50000
