data_crystal

_cell_length_a    50.70360
_cell_length_b    50.70360
_cell_length_c    11.42260
_cell_angle_alpha 90.00000
_cell_angle_beta  90.00000
_cell_angle_gamma 120.00000

_space_group_name_Hall 'P 1'
_space_group_name_H-M_alt 'P 1'

loop_
_symmetry_equiv_pos_as_xyz
 'x,y,z'

loop_
_atom_site_label
_atom_site_type_symbol
_atom_site_fract_x
_atom_site_fract_y
_atom_site_fract_z
C          C       0.02664   0.49850   0.11096
C          C       0.50150   0.52814   0.11096
C          C       0.47186   0.97336   0.11096
C          C       0.97336   0.50150   0.11096
C          C       0.49850   0.47186   0.11096
C          C       0.52814   0.02664   0.11096
C          C       0.02814   0.52675   0.10719
C          C       0.47325   0.50139   0.10719
C          C       0.49861   0.97186   0.10719
C          C       0.97186   0.47325   0.10719
C          C       0.52675   0.49861   0.10719
C          C       0.50139   0.02814   0.10719
C          C       0.00149   0.52878   0.10535
C          C       0.47122   0.47271   0.10535
C          C       0.52729   0.99851   0.10535
C          C       0.99851   0.47122   0.10535
C          C       0.52878   0.52729   0.10535
C          C       0.47271   0.00149   0.10535
N          N       0.99720   0.44207   0.09391
N          N       0.55793   0.55513   0.09391
N          N       0.44487   0.00280   0.09391
N          N       0.00280   0.55793   0.09391
N          N       0.44207   0.44487   0.09391
N          N       0.55513   0.99720   0.09391
C          C       0.96861   0.41401   0.08395
C          C       0.58599   0.55460   0.08395
C          C       0.44540   0.03139   0.08395
C          C       0.03139   0.58599   0.08395
C          C       0.41401   0.44540   0.08395
C          C       0.55460   0.96861   0.08395
C          C       0.97615   0.55983   0.06756
C          C       0.44017   0.41632   0.06756
C          C       0.58368   0.02385   0.06756
C          C       0.02385   0.44017   0.06756
C          C       0.55983   0.58368   0.06756
C          C       0.41632   0.97615   0.06756
C          C       0.96877   0.57795   0.13678
C          C       0.42205   0.39082   0.13678
C          C       0.60918   0.03123   0.13678
C          C       0.03123   0.42205   0.13678
C          C       0.57795   0.60918   0.13678
C          C       0.39082   0.96877   0.13678
C          C       0.94336   0.58066   0.10956
C          C       0.41934   0.36270   0.10956
C          C       0.63730   0.05664   0.10956
C          C       0.05664   0.41934   0.10956
C          C       0.58066   0.63730   0.10956
C          C       0.36270   0.94336   0.10956
C          C       0.92496   0.56509   0.01371
C          C       0.43491   0.35987   0.01371
C          C       0.64013   0.07504   0.01371
C          C       0.07504   0.43491   0.01371
C          C       0.56509   0.64013   0.01371
C          C       0.35987   0.92496   0.01371
C          C       0.93328   0.54812   0.44085
C          C       0.45188   0.38516   0.44085
C          C       0.61484   0.06672   0.44085
C          C       0.06672   0.45188   0.44085
C          C       0.54812   0.61484   0.44085
C          C       0.38516   0.93328   0.44085
C          C       0.95892   0.54576   0.46730
C          C       0.45424   0.41316   0.46730
C          C       0.58684   0.04108   0.46730
C          C       0.04108   0.45424   0.46730
C          C       0.54576   0.58684   0.46730
C          C       0.41316   0.95892   0.46730
C          C       0.94772   0.40328   0.17652
C          C       0.59672   0.54444   0.17652
C          C       0.45556   0.05228   0.17652
C          C       0.05228   0.59672   0.17652
C          C       0.40328   0.45556   0.17652
C          C       0.54444   0.94772   0.17652
C          C       0.91988   0.37628   0.16462
C          C       0.62372   0.54360   0.16462
C          C       0.45640   0.08012   0.16462
C          C       0.08012   0.62372   0.16462
C          C       0.37628   0.45640   0.16462
C          C       0.54360   0.91988   0.16462
C          C       0.91270   0.35950   0.06099
C          C       0.64050   0.55320   0.06099
C          C       0.44680   0.08730   0.06099
C          C       0.08730   0.64050   0.06099
C          C       0.35950   0.44680   0.06099
C          C       0.55320   0.91270   0.06099
C          C       0.93426   0.37004   0.46802
C          C       0.62996   0.56422   0.46802
C          C       0.43578   0.06574   0.46802
C          C       0.06574   0.62996   0.46802
C          C       0.37004   0.43578   0.46802
C          C       0.56422   0.93426   0.46802
C          C       0.96179   0.39682   0.48118
C          C       0.60318   0.56497   0.48118
C          C       0.43503   0.03821   0.48118
C          C       0.03821   0.60318   0.48118
C          C       0.39682   0.43503   0.48118
C          C       0.56497   0.96179   0.48118
N          N       0.88353   0.33198   0.05002
N          N       0.66802   0.55155   0.05002
N          N       0.44845   0.11647   0.05002
N          N       0.11647   0.66802   0.05002
N          N       0.33198   0.44845   0.05002
N          N       0.55155   0.88353   0.05002
N          N       0.89804   0.56695   0.49267
N          N       0.43305   0.33109   0.49267
N          N       0.66891   0.10196   0.49267
N          N       0.10196   0.43305   0.49267
N          N       0.56695   0.66891   0.49267
N          N       0.33109   0.89804   0.49267
C          C       0.75936   0.57211   0.34458
C          C       0.42789   0.18725   0.34458
C          C       0.81275   0.24064   0.34458
C          C       0.24064   0.42789   0.34458
C          C       0.57211   0.81275   0.34458
C          C       0.18725   0.75936   0.34458
C          C       0.73258   0.57352   0.35270
C          C       0.42648   0.15906   0.35270
C          C       0.84094   0.26742   0.35270
C          C       0.26742   0.42648   0.35270
C          C       0.57352   0.84094   0.35270
C          C       0.15906   0.73258   0.35270
C          C       0.71230   0.55899   0.44509
C          C       0.44101   0.15331   0.44509
C          C       0.84669   0.28770   0.44509
C          C       0.28770   0.44101   0.44509
C          C       0.55899   0.84669   0.44509
C          C       0.15331   0.71230   0.44509
C          C       0.71856   0.54251   0.02796
C          C       0.45749   0.17605   0.02796
C          C       0.82395   0.28144   0.02796
C          C       0.28144   0.45749   0.02796
C          C       0.54251   0.82395   0.02796
C          C       0.17605   0.71856   0.02796
C          C       0.74494   0.54056   0.01863
C          C       0.45944   0.20438   0.01863
C          C       0.79562   0.25506   0.01863
C          C       0.25506   0.45944   0.01863
C          C       0.54056   0.79562   0.01863
C          C       0.20438   0.74494   0.01863
C          C       0.76559   0.55550   0.42734
C          C       0.44450   0.21009   0.42734
C          C       0.78991   0.23441   0.42734
C          C       0.23441   0.44450   0.42734
C          C       0.55550   0.78991   0.42734
C          C       0.21009   0.76559   0.42734
C          C       0.87368   0.54584   0.44186
C          C       0.45416   0.32784   0.44186
C          C       0.67216   0.12632   0.44186
C          C       0.12632   0.45416   0.44186
C          C       0.54584   0.67216   0.44186
C          C       0.32784   0.87368   0.44186
C          C       0.68461   0.56106   0.45592
C          C       0.43894   0.12355   0.45592
C          C       0.87645   0.31539   0.45592
C          C       0.31539   0.43894   0.45592
C          C       0.56106   0.87645   0.45592
C          C       0.12355   0.68461   0.45592
H          H       0.04772   0.49818   0.11450
H          H       0.50182   0.54954   0.11450
H          H       0.45046   0.95228   0.11450
H          H       0.95228   0.50182   0.11450
H          H       0.49818   0.45046   0.11450
H          H       0.54954   0.04772   0.11450
H          H       0.05032   0.54695   0.10336
H          H       0.45305   0.50337   0.10336
H          H       0.49663   0.94968   0.10336
H          H       0.94968   0.45305   0.10336
H          H       0.54695   0.49663   0.10336
H          H       0.50337   0.05032   0.10336
H          H       0.98314   0.59013   0.21071
H          H       0.40987   0.39301   0.21071
H          H       0.60699   0.01686   0.21071
H          H       0.01686   0.40987   0.21071
H          H       0.59013   0.60699   0.21071
H          H       0.39301   0.98314   0.21071
H          H       0.93771   0.59458   0.16367
H          H       0.40542   0.34313   0.16367
H          H       0.65687   0.06229   0.16367
H          H       0.06229   0.40542   0.16367
H          H       0.59458   0.65687   0.16367
H          H       0.34313   0.93771   0.16367
H          H       0.92051   0.53727   0.36261
H          H       0.46273   0.38324   0.36261
H          H       0.61676   0.07949   0.36261
H          H       0.07949   0.46273   0.36261
H          H       0.53727   0.61676   0.36261
H          H       0.38324   0.92051   0.36261
H          H       0.96582   0.53335   0.40966
H          H       0.46665   0.43247   0.40966
H          H       0.56753   0.03418   0.40966
H          H       0.03418   0.46665   0.40966
H          H       0.53335   0.56753   0.40966
H          H       0.43247   0.96582   0.40966
H          H       0.95302   0.41562   0.25796
H          H       0.58438   0.53740   0.25796
H          H       0.46260   0.04698   0.25796
H          H       0.04698   0.58438   0.25796
H          H       0.41562   0.46260   0.25796
H          H       0.53740   0.95302   0.25796
H          H       0.90426   0.36808   0.23739
H          H       0.63192   0.53618   0.23739
H          H       0.46382   0.09574   0.23739
H          H       0.09574   0.63192   0.23739
H          H       0.36808   0.46382   0.23739
H          H       0.53618   0.90426   0.23739
H          H       0.93129   0.35858   0.38426
H          H       0.64142   0.57271   0.38426
H          H       0.42729   0.06871   0.38426
H          H       0.06871   0.64142   0.38426
H          H       0.35858   0.42729   0.38426
H          H       0.57271   0.93129   0.38426
H          H       0.97773   0.40405   0.40978
H          H       0.59595   0.57368   0.40978
H          H       0.42632   0.02227   0.40978
H          H       0.02227   0.59595   0.40978
H          H       0.40405   0.42632   0.40978
H          H       0.57368   0.97773   0.40978
H          H       0.77503   0.58371   0.27347
H          H       0.41629   0.19132   0.27347
H          H       0.80868   0.22497   0.27347
H          H       0.22497   0.41629   0.27347
H          H       0.58371   0.80868   0.27347
H          H       0.19132   0.77503   0.27347
H          H       0.70277   0.53120   0.09918
H          H       0.46880   0.17157   0.09918
H          H       0.82843   0.29723   0.09918
H          H       0.29723   0.46880   0.09918
H          H       0.53120   0.82843   0.09918
H          H       0.17157   0.70277   0.09918
H          H       0.87204   0.52448   0.41672
H          H       0.47552   0.34756   0.41672
H          H       0.65244   0.12796   0.41672
H          H       0.12796   0.47552   0.41672
H          H       0.52448   0.65244   0.41672
H          H       0.34756   0.87204   0.41672
H          H       0.67602   0.57073   0.38566
H          H       0.42927   0.10529   0.38566
H          H       0.89471   0.32398   0.38566
H          H       0.32398   0.42927   0.38566
H          H       0.57073   0.89471   0.38566
H          H       0.10529   0.67602   0.38566
C          C       0.79362   0.55371   0.42023
C          C       0.44629   0.23991   0.42023
C          C       0.76009   0.20638   0.42023
C          C       0.20638   0.44629   0.42023
C          C       0.55371   0.76009   0.42023
C          C       0.23991   0.79362   0.42023
C          C       0.79176   0.52536   0.40699
C          C       0.47464   0.26640   0.40699
C          C       0.73360   0.20824   0.40699
C          C       0.20824   0.47464   0.40699
C          C       0.52536   0.73360   0.40699
C          C       0.26640   0.79176   0.40699
C          C       0.81809   0.52311   0.41008
C          C       0.47689   0.29498   0.41008
C          C       0.70502   0.18191   0.41008
C          C       0.18191   0.47689   0.41008
C          C       0.52311   0.70502   0.41008
C          C       0.29498   0.81809   0.41008
C          C       0.84655   0.54908   0.42922
C          C       0.45092   0.29747   0.42922
C          C       0.70253   0.15345   0.42922
C          C       0.15345   0.45092   0.42922
C          C       0.54908   0.70253   0.42922
C          C       0.29747   0.84655   0.42922
C          C       0.84849   0.57757   0.44024
C          C       0.42243   0.27092   0.44024
C          C       0.72908   0.15151   0.44024
C          C       0.15151   0.42243   0.44024
C          C       0.57757   0.72908   0.44024
C          C       0.27092   0.84849   0.44024
C          C       0.82217   0.57991   0.43473
C          C       0.42009   0.24226   0.43473
C          C       0.75774   0.17783   0.43473
C          C       0.17783   0.42009   0.43473
C          C       0.57991   0.75774   0.43473
C          C       0.24226   0.82217   0.43473
H          H       0.72782   0.58621   0.28798
H          H       0.41379   0.14161   0.28798
H          H       0.85839   0.27218   0.28798
H          H       0.27218   0.41379   0.28798
H          H       0.58621   0.85839   0.28798
H          H       0.14161   0.72782   0.28798
H          H       0.74943   0.52775   0.08339
H          H       0.47225   0.22168   0.08339
H          H       0.77832   0.25057   0.08339
H          H       0.25057   0.47225   0.08339
H          H       0.52775   0.77832   0.08339
H          H       0.22168   0.74943   0.08339
H          H       0.76984   0.50494   0.39573
H          H       0.49506   0.26490   0.39573
H          H       0.73510   0.23016   0.39573
H          H       0.23016   0.49506   0.39573
H          H       0.50494   0.73510   0.39573
H          H       0.26490   0.76984   0.39573
H          H       0.81617   0.50095   0.40129
H          H       0.49905   0.31522   0.40129
H          H       0.68478   0.18383   0.40129
H          H       0.18383   0.49905   0.40129
H          H       0.50095   0.68478   0.40129
H          H       0.31522   0.81617   0.40129
H          H       0.87040   0.59782   0.45461
H          H       0.40218   0.27258   0.45461
H          H       0.72742   0.12960   0.45461
H          H       0.12960   0.40218   0.45461
H          H       0.59782   0.72742   0.45461
H          H       0.27258   0.87040   0.45461
H          H       0.82390   0.60194   0.44592
H          H       0.39806   0.22196   0.44592
H          H       0.77804   0.17610   0.44592
H          H       0.17610   0.39806   0.44592
H          H       0.60194   0.77804   0.44592
H          H       0.22196   0.82390   0.44592
C          C       0.02664   0.49850   0.61096
C          C       0.50150   0.52814   0.61096
C          C       0.47186   0.97336   0.61096
C          C       0.97336   0.50150   0.61096
C          C       0.49850   0.47186   0.61096
C          C       0.52814   0.02664   0.61096
C          C       0.02814   0.52675   0.60718
C          C       0.47325   0.50139   0.60718
C          C       0.49861   0.97186   0.60718
C          C       0.97186   0.47325   0.60718
C          C       0.52675   0.49861   0.60718
C          C       0.50139   0.02814   0.60718
C          C       0.00149   0.52878   0.60535
C          C       0.47122   0.47271   0.60535
C          C       0.52729   0.99851   0.60535
C          C       0.99851   0.47122   0.60535
C          C       0.52878   0.52729   0.60535
C          C       0.47271   0.00149   0.60535
N          N       0.99720   0.44207   0.59391
N          N       0.55793   0.55513   0.59391
N          N       0.44487   0.00280   0.59391
N          N       0.00280   0.55793   0.59391
N          N       0.44207   0.44487   0.59391
N          N       0.55513   0.99720   0.59391
C          C       0.96861   0.41401   0.58394
C          C       0.58599   0.55460   0.58394
C          C       0.44540   0.03139   0.58394
C          C       0.03139   0.58599   0.58394
C          C       0.41401   0.44540   0.58394
C          C       0.55460   0.96861   0.58394
C          C       0.97615   0.55983   0.56756
C          C       0.44017   0.41632   0.56756
C          C       0.58368   0.02385   0.56756
C          C       0.02385   0.44017   0.56756
C          C       0.55983   0.58368   0.56756
C          C       0.41632   0.97615   0.56756
C          C       0.96877   0.57795   0.63678
C          C       0.42205   0.39082   0.63678
C          C       0.60918   0.03123   0.63678
C          C       0.03123   0.42205   0.63678
C          C       0.57795   0.60918   0.63678
C          C       0.39082   0.96877   0.63678
C          C       0.94336   0.58066   0.60956
C          C       0.41934   0.36270   0.60956
C          C       0.63730   0.05664   0.60956
C          C       0.05664   0.41934   0.60956
C          C       0.58066   0.63730   0.60956
C          C       0.36270   0.94336   0.60956
C          C       0.92496   0.56509   0.51370
C          C       0.43491   0.35987   0.51370
C          C       0.64013   0.07504   0.51370
C          C       0.07504   0.43491   0.51370
C          C       0.56509   0.64013   0.51370
C          C       0.35987   0.92496   0.51370
C          C       0.93328   0.54812   0.94085
C          C       0.45188   0.38516   0.94085
C          C       0.61484   0.06672   0.94085
C          C       0.06672   0.45188   0.94085
C          C       0.54812   0.61484   0.94085
C          C       0.38516   0.93328   0.94085
C          C       0.95892   0.54576   0.96730
C          C       0.45424   0.41316   0.96730
C          C       0.58684   0.04108   0.96730
C          C       0.04108   0.45424   0.96730
C          C       0.54576   0.58684   0.96730
C          C       0.41316   0.95892   0.96730
C          C       0.94772   0.40328   0.67653
C          C       0.59672   0.54444   0.67653
C          C       0.45556   0.05228   0.67653
C          C       0.05228   0.59672   0.67653
C          C       0.40328   0.45556   0.67653
C          C       0.54444   0.94772   0.67653
C          C       0.91988   0.37628   0.66462
C          C       0.62372   0.54360   0.66462
C          C       0.45640   0.08012   0.66462
C          C       0.08012   0.62372   0.66462
C          C       0.37628   0.45640   0.66462
C          C       0.54360   0.91988   0.66462
C          C       0.91270   0.35950   0.56099
C          C       0.64050   0.55320   0.56099
C          C       0.44680   0.08730   0.56099
C          C       0.08730   0.64050   0.56099
C          C       0.35950   0.44680   0.56099
C          C       0.55320   0.91270   0.56099
C          C       0.93426   0.37004   0.96802
C          C       0.62996   0.56422   0.96802
C          C       0.43578   0.06574   0.96802
C          C       0.06574   0.62996   0.96802
C          C       0.37004   0.43578   0.96802
C          C       0.56422   0.93426   0.96802
C          C       0.96179   0.39682   0.98119
C          C       0.60318   0.56497   0.98119
C          C       0.43503   0.03821   0.98119
C          C       0.03821   0.60318   0.98119
C          C       0.39682   0.43503   0.98119
C          C       0.56497   0.96179   0.98119
N          N       0.88353   0.33198   0.55002
N          N       0.66802   0.55155   0.55002
N          N       0.44845   0.11647   0.55002
N          N       0.11647   0.66802   0.55002
N          N       0.33198   0.44845   0.55002
N          N       0.55155   0.88353   0.55002
N          N       0.89804   0.56695   0.99267
N          N       0.43305   0.33109   0.99267
N          N       0.66891   0.10196   0.99267
N          N       0.10196   0.43305   0.99267
N          N       0.56695   0.66891   0.99267
N          N       0.33109   0.89804   0.99267
C          C       0.75936   0.57211   0.84458
C          C       0.42789   0.18725   0.84458
C          C       0.81275   0.24064   0.84458
C          C       0.24064   0.42789   0.84458
C          C       0.57211   0.81275   0.84458
C          C       0.18725   0.75936   0.84458
C          C       0.73258   0.57352   0.85271
C          C       0.42648   0.15906   0.85271
C          C       0.84094   0.26742   0.85271
C          C       0.26742   0.42648   0.85271
C          C       0.57352   0.84094   0.85271
C          C       0.15906   0.73258   0.85271
C          C       0.71230   0.55899   0.94508
C          C       0.44101   0.15331   0.94508
C          C       0.84669   0.28770   0.94508
C          C       0.28770   0.44101   0.94508
C          C       0.55899   0.84669   0.94508
C          C       0.15331   0.71230   0.94508
C          C       0.71856   0.54251   0.52795
C          C       0.45749   0.17605   0.52795
C          C       0.82395   0.28144   0.52795
C          C       0.28144   0.45749   0.52795
C          C       0.54251   0.82395   0.52795
C          C       0.17605   0.71856   0.52795
C          C       0.74494   0.54056   0.51863
C          C       0.45944   0.20438   0.51863
C          C       0.79562   0.25506   0.51863
C          C       0.25506   0.45944   0.51863
C          C       0.54056   0.79562   0.51863
C          C       0.20438   0.74494   0.51863
C          C       0.76559   0.55550   0.92734
C          C       0.44450   0.21009   0.92734
C          C       0.78991   0.23441   0.92734
C          C       0.23441   0.44450   0.92734
C          C       0.55550   0.78991   0.92734
C          C       0.21009   0.76559   0.92734
C          C       0.87368   0.54584   0.94186
C          C       0.45416   0.32784   0.94186
C          C       0.67216   0.12632   0.94186
C          C       0.12632   0.45416   0.94186
C          C       0.54584   0.67216   0.94186
C          C       0.32784   0.87368   0.94186
C          C       0.68461   0.56106   0.95591
C          C       0.43894   0.12355   0.95591
C          C       0.87645   0.31539   0.95591
C          C       0.31539   0.43894   0.95591
C          C       0.56106   0.87645   0.95591
C          C       0.12355   0.68461   0.95591
H          H       0.04772   0.49818   0.61450
H          H       0.50182   0.54954   0.61450
H          H       0.45046   0.95228   0.61450
H          H       0.95228   0.50182   0.61450
H          H       0.49818   0.45046   0.61450
H          H       0.54954   0.04772   0.61450
H          H       0.05032   0.54695   0.60336
H          H       0.45305   0.50337   0.60336
H          H       0.49663   0.94968   0.60336
H          H       0.94968   0.45305   0.60336
H          H       0.54695   0.49663   0.60336
H          H       0.50337   0.05032   0.60336
H          H       0.98314   0.59013   0.71071
H          H       0.40987   0.39301   0.71071
H          H       0.60699   0.01686   0.71071
H          H       0.01686   0.40987   0.71071
H          H       0.59013   0.60699   0.71071
H          H       0.39301   0.98314   0.71071
H          H       0.93771   0.59458   0.66368
H          H       0.40542   0.34313   0.66368
H          H       0.65687   0.06229   0.66368
H          H       0.06229   0.40542   0.66368
H          H       0.59458   0.65687   0.66368
H          H       0.34313   0.93771   0.66368
H          H       0.92051   0.53727   0.86261
H          H       0.46273   0.38324   0.86261
H          H       0.61676   0.07949   0.86261
H          H       0.07949   0.46273   0.86261
H          H       0.53727   0.61676   0.86261
H          H       0.38324   0.92051   0.86261
H          H       0.96582   0.53335   0.90966
H          H       0.46665   0.43247   0.90966
H          H       0.56753   0.03418   0.90966
H          H       0.03418   0.46665   0.90966
H          H       0.53335   0.56753   0.90966
H          H       0.43247   0.96582   0.90966
H          H       0.95302   0.41562   0.75796
H          H       0.58438   0.53740   0.75796
H          H       0.46260   0.04698   0.75796
H          H       0.04698   0.58438   0.75796
H          H       0.41562   0.46260   0.75796
H          H       0.53740   0.95302   0.75796
H          H       0.90426   0.36808   0.73739
H          H       0.63192   0.53618   0.73739
H          H       0.46382   0.09574   0.73739
H          H       0.09574   0.63192   0.73739
H          H       0.36808   0.46382   0.73739
H          H       0.53618   0.90426   0.73739
H          H       0.93129   0.35858   0.88426
H          H       0.64142   0.57271   0.88426
H          H       0.42729   0.06871   0.88426
H          H       0.06871   0.64142   0.88426
H          H       0.35858   0.42729   0.88426
H          H       0.57271   0.93129   0.88426
H          H       0.97773   0.40405   0.90978
H          H       0.59595   0.57368   0.90978
H          H       0.42632   0.02227   0.90978
H          H       0.02227   0.59595   0.90978
H          H       0.40405   0.42632   0.90978
H          H       0.57368   0.97773   0.90978
H          H       0.77503   0.58371   0.77347
H          H       0.41629   0.19132   0.77347
H          H       0.80868   0.22497   0.77347
H          H       0.22497   0.41629   0.77347
H          H       0.58371   0.80868   0.77347
H          H       0.19132   0.77503   0.77347
H          H       0.70277   0.53120   0.59918
H          H       0.46880   0.17157   0.59918
H          H       0.82843   0.29723   0.59918
H          H       0.29723   0.46880   0.59918
H          H       0.53120   0.82843   0.59918
H          H       0.17157   0.70277   0.59918
H          H       0.87204   0.52448   0.91671
H          H       0.47552   0.34756   0.91671
H          H       0.65244   0.12796   0.91671
H          H       0.12796   0.47552   0.91671
H          H       0.52448   0.65244   0.91671
H          H       0.34756   0.87204   0.91671
H          H       0.67602   0.57073   0.88566
H          H       0.42927   0.10529   0.88566
H          H       0.89471   0.32398   0.88566
H          H       0.32398   0.42927   0.88566
H          H       0.57073   0.89471   0.88566
H          H       0.10529   0.67602   0.88566
C          C       0.79362   0.55371   0.92023
C          C       0.44629   0.23991   0.92023
C          C       0.76009   0.20638   0.92023
C          C       0.20638   0.44629   0.92023
C          C       0.55371   0.76009   0.92023
C          C       0.23991   0.79362   0.92023
C          C       0.79176   0.52536   0.90699
C          C       0.47464   0.26640   0.90699
C          C       0.73360   0.20824   0.90699
C          C       0.20824   0.47464   0.90699
C          C       0.52536   0.73360   0.90699
C          C       0.26640   0.79176   0.90699
C          C       0.81809   0.52311   0.91008
C          C       0.47689   0.29498   0.91008
C          C       0.70502   0.18191   0.91008
C          C       0.18191   0.47689   0.91008
C          C       0.52311   0.70502   0.91008
C          C       0.29498   0.81809   0.91008
C          C       0.84655   0.54908   0.92922
C          C       0.45092   0.29747   0.92922
C          C       0.70253   0.15345   0.92922
C          C       0.15345   0.45092   0.92922
C          C       0.54908   0.70253   0.92922
C          C       0.29747   0.84655   0.92922
C          C       0.84849   0.57757   0.94024
C          C       0.42243   0.27092   0.94024
C          C       0.72908   0.15151   0.94024
C          C       0.15151   0.42243   0.94024
C          C       0.57757   0.72908   0.94024
C          C       0.27092   0.84849   0.94024
C          C       0.82217   0.57991   0.93473
C          C       0.42009   0.24226   0.93473
C          C       0.75774   0.17783   0.93473
C          C       0.17783   0.42009   0.93473
C          C       0.57991   0.75774   0.93473
C          C       0.24226   0.82217   0.93473
H          H       0.72782   0.58621   0.78798
H          H       0.41379   0.14161   0.78798
H          H       0.85839   0.27218   0.78798
H          H       0.27218   0.41379   0.78798
H          H       0.58621   0.85839   0.78798
H          H       0.14161   0.72782   0.78798
H          H       0.74943   0.52775   0.58339
H          H       0.47225   0.22168   0.58339
H          H       0.77832   0.25057   0.58339
H          H       0.25057   0.47225   0.58339
H          H       0.52775   0.77832   0.58339
H          H       0.22168   0.74943   0.58339
H          H       0.76984   0.50494   0.89573
H          H       0.49506   0.26490   0.89573
H          H       0.73510   0.23016   0.89573
H          H       0.23016   0.49506   0.89573
H          H       0.50494   0.73510   0.89573
H          H       0.26490   0.76984   0.89573
H          H       0.81617   0.50095   0.90129
H          H       0.49905   0.31522   0.90129
H          H       0.68478   0.18383   0.90129
H          H       0.18383   0.49905   0.90129
H          H       0.50095   0.68478   0.90129
H          H       0.31522   0.81617   0.90129
H          H       0.87040   0.59782   0.95461
H          H       0.40218   0.27258   0.95461
H          H       0.72742   0.12960   0.95461
H          H       0.12960   0.40218   0.95461
H          H       0.59782   0.72742   0.95461
H          H       0.27258   0.87040   0.95461
H          H       0.82390   0.60194   0.94592
H          H       0.39806   0.22196   0.94592
H          H       0.77804   0.17610   0.94592
H          H       0.17610   0.39806   0.94592
H          H       0.60194   0.77804   0.94592
H          H       0.22196   0.82390   0.94592
