data_crystal

_cell_length_a    37.62390
_cell_length_b    37.62390
_cell_length_c    7.30300
_cell_angle_alpha 90.00000
_cell_angle_beta  90.00000
_cell_angle_gamma 120.00000

_space_group_name_Hall 'P 1'
_space_group_name_H-M_alt 'P 1'

loop_
_symmetry_equiv_pos_as_xyz
 'x,y,z'

loop_
_atom_site_label
_atom_site_type_symbol
_atom_site_fract_x
_atom_site_fract_y
_atom_site_fract_z
C          C       0.62393   0.31412   0.49850
C          C       0.68588   0.30981   0.49850
C          C       0.69019   0.37607   0.49850
C          C       0.37607   0.68588   0.49850
C          C       0.31412   0.69019   0.49850
C          C       0.30981   0.62393   0.49850
C          C       0.64277   0.28993   0.49855
C          C       0.71007   0.35284   0.49855
C          C       0.64716   0.35723   0.49855
C          C       0.35723   0.71007   0.49855
C          C       0.28993   0.64716   0.49855
C          C       0.35284   0.64277   0.49855
C          C       0.62651   0.38248   0.49884
C          C       0.61752   0.24403   0.49884
C          C       0.75597   0.37349   0.49884
C          C       0.37349   0.61752   0.49884
C          C       0.38248   0.75597   0.49884
C          C       0.24403   0.62651   0.49884
C          C       0.64579   0.42215   0.42194
C          C       0.57785   0.22364   0.42194
C          C       0.77636   0.35421   0.42194
C          C       0.35421   0.57785   0.42194
C          C       0.42215   0.77636   0.42194
C          C       0.22364   0.64579   0.42194
C          C       0.62660   0.44577   0.42456
C          C       0.55423   0.18083   0.42456
C          C       0.81917   0.37340   0.42456
C          C       0.37340   0.55423   0.42456
C          C       0.44577   0.81917   0.42456
C          C       0.18083   0.62660   0.42456
C          C       0.58735   0.43012   0.49777
C          C       0.56988   0.15723   0.49777
C          C       0.84277   0.41265   0.49777
C          C       0.41265   0.56988   0.49777
C          C       0.43012   0.84277   0.49777
C          C       0.15723   0.58735   0.49777
C          C       0.56779   0.39067   0.07495
C          C       0.60933   0.17712   0.07495
C          C       0.82288   0.43221   0.07495
C          C       0.43221   0.60933   0.07495
C          C       0.39067   0.82288   0.07495
C          C       0.17712   0.56779   0.07495
C          C       0.58728   0.36733   0.07687
C          C       0.63267   0.21995   0.07687
C          C       0.78005   0.41272   0.07687
C          C       0.41272   0.63267   0.07687
C          C       0.36733   0.78005   0.07687
C          C       0.21995   0.58728   0.07687
N          N       0.56907   0.45566   0.49628
N          N       0.54434   0.11341   0.49628
N          N       0.88659   0.43093   0.49628
N          N       0.43093   0.54434   0.49628
N          N       0.45566   0.88659   0.49628
N          N       0.11341   0.56907   0.49628
C          C       0.53005   0.44291   0.00990
C          C       0.55709   0.08714   0.00990
C          C       0.91286   0.46995   0.00990
C          C       0.46995   0.55709   0.00990
C          C       0.44291   0.91286   0.00990
C          C       0.08714   0.53005   0.00990
C          C       0.51484   0.47227   0.00929
C          C       0.52773   0.04257   0.00929
C          C       0.95743   0.48516   0.00929
C          C       0.48516   0.52773   0.00929
C          C       0.47227   0.95743   0.00929
C          C       0.04257   0.51484   0.00929
C          C       0.54225   0.51482   0.00923
C          C       0.48518   0.02743   0.00923
C          C       0.97257   0.45775   0.00923
C          C       0.45775   0.48518   0.00923
C          C       0.51482   0.97257   0.00923
C          C       0.02743   0.54225   0.00923
C          C       0.52764   0.54250   0.00959
C          C       0.45750   0.98514   0.00959
C          C       0.01486   0.47236   0.00959
C          C       0.47236   0.45750   0.00959
C          C       0.54250   0.01486   0.00959
C          C       0.98514   0.52764   0.00959
O          O       0.44499   0.41526   0.00996
O          O       0.58474   0.02973   0.00996
O          O       0.97027   0.55501   0.00996
O          O       0.55501   0.58474   0.00996
O          O       0.41526   0.97027   0.00996
O          O       0.02973   0.44499   0.00996
H          H       0.59093   0.29930   0.49855
H          H       0.70070   0.29163   0.49855
H          H       0.70837   0.40907   0.49855
H          H       0.40907   0.70070   0.49855
H          H       0.29930   0.70837   0.49855
H          H       0.29163   0.59093   0.49855
H          H       0.67516   0.43476   0.35434
H          H       0.56524   0.24040   0.35434
H          H       0.75960   0.32484   0.35434
H          H       0.32484   0.56524   0.35434
H          H       0.43476   0.75960   0.35434
H          H       0.24040   0.67516   0.35434
H          H       0.64174   0.47607   0.36422
H          H       0.52393   0.16567   0.36422
H          H       0.83433   0.35826   0.36422
H          H       0.35826   0.52393   0.36422
H          H       0.47607   0.83433   0.36422
H          H       0.16567   0.64174   0.36422
H          H       0.53827   0.37842   0.14076
H          H       0.62158   0.15985   0.14076
H          H       0.84015   0.46173   0.14076
H          H       0.46173   0.62158   0.14076
H          H       0.37842   0.84015   0.14076
H          H       0.15985   0.53827   0.14076
H          H       0.57198   0.33802   0.14583
H          H       0.66198   0.23396   0.14583
H          H       0.76604   0.42802   0.14583
H          H       0.42802   0.66198   0.14583
H          H       0.33802   0.76604   0.14583
H          H       0.23396   0.57198   0.14583
H          H       0.50777   0.41045   0.01673
H          H       0.58955   0.09732   0.01673
H          H       0.90268   0.49223   0.01673
H          H       0.49223   0.58955   0.01673
H          H       0.41045   0.90268   0.01673
H          H       0.09732   0.50777   0.01673
H          H       0.57496   0.52650   0.00946
H          H       0.47350   0.04846   0.00946
H          H       0.95154   0.42504   0.00946
H          H       0.42504   0.47350   0.00946
H          H       0.52650   0.95154   0.00946
H          H       0.04846   0.57496   0.00946
H          H       0.41506   0.40756   0.01002
H          H       0.59244   0.00750   0.01002
H          H       0.99250   0.58494   0.01002
H          H       0.58494   0.59244   0.01002
H          H       0.40756   0.99250   0.01002
H          H       0.00750   0.41506   0.01002
C          C       0.62393   0.31412   0.99850
C          C       0.68588   0.30981   0.99850
C          C       0.69019   0.37607   0.99850
C          C       0.37607   0.68588   0.99850
C          C       0.31412   0.69019   0.99850
C          C       0.30981   0.62393   0.99850
C          C       0.64277   0.28993   0.99855
C          C       0.71007   0.35284   0.99855
C          C       0.64716   0.35723   0.99855
C          C       0.35723   0.71007   0.99855
C          C       0.28993   0.64716   0.99855
C          C       0.35284   0.64277   0.99855
C          C       0.62651   0.38248   0.99884
C          C       0.61752   0.24403   0.99884
C          C       0.75597   0.37349   0.99884
C          C       0.37349   0.61752   0.99884
C          C       0.38248   0.75597   0.99884
C          C       0.24403   0.62651   0.99884
C          C       0.64579   0.42215   0.92193
C          C       0.57785   0.22364   0.92193
C          C       0.77636   0.35421   0.92193
C          C       0.35421   0.57785   0.92193
C          C       0.42215   0.77636   0.92193
C          C       0.22364   0.64579   0.92193
C          C       0.62660   0.44577   0.92456
C          C       0.55423   0.18083   0.92456
C          C       0.81917   0.37340   0.92456
C          C       0.37340   0.55423   0.92456
C          C       0.44577   0.81917   0.92456
C          C       0.18083   0.62660   0.92456
C          C       0.58735   0.43012   0.99777
C          C       0.56988   0.15723   0.99777
C          C       0.84277   0.41265   0.99777
C          C       0.41265   0.56988   0.99777
C          C       0.43012   0.84277   0.99777
C          C       0.15723   0.58735   0.99777
C          C       0.56779   0.39067   0.57495
C          C       0.60933   0.17712   0.57495
C          C       0.82288   0.43221   0.57495
C          C       0.43221   0.60933   0.57495
C          C       0.39067   0.82288   0.57495
C          C       0.17712   0.56779   0.57495
C          C       0.58728   0.36733   0.57687
C          C       0.63267   0.21995   0.57687
C          C       0.78005   0.41272   0.57687
C          C       0.41272   0.63267   0.57687
C          C       0.36733   0.78005   0.57687
C          C       0.21995   0.58728   0.57687
N          N       0.56907   0.45566   0.99628
N          N       0.54434   0.11341   0.99628
N          N       0.88659   0.43093   0.99628
N          N       0.43093   0.54434   0.99628
N          N       0.45566   0.88659   0.99628
N          N       0.11341   0.56907   0.99628
C          C       0.53005   0.44291   0.50990
C          C       0.55709   0.08714   0.50990
C          C       0.91286   0.46995   0.50990
C          C       0.46995   0.55709   0.50990
C          C       0.44291   0.91286   0.50990
C          C       0.08714   0.53005   0.50990
C          C       0.51484   0.47227   0.50930
C          C       0.52773   0.04257   0.50930
C          C       0.95743   0.48516   0.50930
C          C       0.48516   0.52773   0.50930
C          C       0.47227   0.95743   0.50930
C          C       0.04257   0.51484   0.50930
C          C       0.54225   0.51482   0.50923
C          C       0.48518   0.02743   0.50923
C          C       0.97257   0.45775   0.50923
C          C       0.45775   0.48518   0.50923
C          C       0.51482   0.97257   0.50923
C          C       0.02743   0.54225   0.50923
C          C       0.52764   0.54250   0.50959
C          C       0.45750   0.98514   0.50959
C          C       0.01486   0.47236   0.50959
C          C       0.47236   0.45750   0.50959
C          C       0.54250   0.01486   0.50959
C          C       0.98514   0.52764   0.50959
O          O       0.44499   0.41526   0.50995
O          O       0.58474   0.02973   0.50995
O          O       0.97027   0.55501   0.50995
O          O       0.55501   0.58474   0.50995
O          O       0.41526   0.97027   0.50995
O          O       0.02973   0.44499   0.50995
H          H       0.59093   0.29930   0.99855
H          H       0.70070   0.29163   0.99855
H          H       0.70837   0.40907   0.99855
H          H       0.40907   0.70070   0.99855
H          H       0.29930   0.70837   0.99855
H          H       0.29163   0.59093   0.99855
H          H       0.67516   0.43476   0.85434
H          H       0.56524   0.24040   0.85434
H          H       0.75960   0.32484   0.85434
H          H       0.32484   0.56524   0.85434
H          H       0.43476   0.75960   0.85434
H          H       0.24040   0.67516   0.85434
H          H       0.64174   0.47607   0.86422
H          H       0.52393   0.16567   0.86422
H          H       0.83433   0.35826   0.86422
H          H       0.35826   0.52393   0.86422
H          H       0.47607   0.83433   0.86422
H          H       0.16567   0.64174   0.86422
H          H       0.53827   0.37842   0.64076
H          H       0.62158   0.15985   0.64076
H          H       0.84015   0.46173   0.64076
H          H       0.46173   0.62158   0.64076
H          H       0.37842   0.84015   0.64076
H          H       0.15985   0.53827   0.64076
H          H       0.57198   0.33802   0.64583
H          H       0.66198   0.23396   0.64583
H          H       0.76604   0.42802   0.64583
H          H       0.42802   0.66198   0.64583
H          H       0.33802   0.76604   0.64583
H          H       0.23396   0.57198   0.64583
H          H       0.50777   0.41045   0.51673
H          H       0.58955   0.09732   0.51673
H          H       0.90268   0.49223   0.51673
H          H       0.49223   0.58955   0.51673
H          H       0.41045   0.90268   0.51673
H          H       0.09732   0.50777   0.51673
H          H       0.57496   0.52650   0.50946
H          H       0.47350   0.04846   0.50946
H          H       0.95154   0.42504   0.50946
H          H       0.42504   0.47350   0.50946
H          H       0.52650   0.95154   0.50946
H          H       0.04846   0.57496   0.50946
H          H       0.41506   0.40756   0.51002
H          H       0.59244   0.00750   0.51002
H          H       0.99250   0.58494   0.51002
H          H       0.58494   0.59244   0.51002
H          H       0.40756   0.99250   0.51002
H          H       0.00750   0.41506   0.51002
