data_crystal

_cell_length_a    25.62110
_cell_length_b    25.62110
_cell_length_c    7.05820
_cell_angle_alpha 90.00000
_cell_angle_beta  90.00000
_cell_angle_gamma 120.00000

_space_group_name_Hall 'P 1'
_space_group_name_H-M_alt 'P 1'

loop_
_symmetry_equiv_pos_as_xyz
 'x,y,z'

loop_
_atom_site_label
_atom_site_type_symbol
_atom_site_fract_x
_atom_site_fract_y
_atom_site_fract_z
C          C       0.63585   0.36292   0.00000
C          C       0.63708   0.27293   0.00000
C          C       0.72707   0.36415   0.00000
C          C       0.60220   0.39523   0.00000
C          C       0.60477   0.20697   0.00000
C          C       0.79303   0.39780   0.00000
C          C       0.63216   0.45766   0.00000
C          C       0.54234   0.17450   0.00000
C          C       0.82550   0.36784   0.00000
C          C       0.60032   0.48791   0.00000
C          C       0.51209   0.11241   0.00000
C          C       0.88759   0.39968   0.00000
C          C       0.53826   0.45689   0.00000
C          C       0.54311   0.08137   0.00000
C          C       0.91863   0.46174   0.00000
C          C       0.50799   0.39437   0.00000
C          C       0.60563   0.11362   0.00000
C          C       0.88638   0.49201   0.00000
C          C       0.53973   0.36397   0.00000
C          C       0.63603   0.17576   0.00000
C          C       0.82424   0.46027   0.00000
N          N       0.50849   0.49092   0.00000
N          N       0.50908   0.01757   0.00000
N          N       0.98243   0.49151   0.00000
N          N       0.60671   0.30275   0.00000
N          N       0.69725   0.30396   0.00000
N          N       0.69604   0.39329   0.00000
C          C       0.45153   0.47067   0.00000
C          C       0.52933   0.98086   0.00000
C          C       0.01914   0.54847   0.00000
C          C       0.42783   0.51177   0.00000
C          C       0.48823   0.91606   0.00000
C          C       0.08394   0.57217   0.00000
C          C       0.46582   0.57358   0.00000
C          C       0.42642   0.89224   0.00000
C          C       0.10776   0.53418   0.00000
C          C       0.44257   0.61181   0.00000
C          C       0.38819   0.83076   0.00000
C          C       0.16924   0.55743   0.00000
C          C       0.38080   0.58899   0.00000
C          C       0.41101   0.79181   0.00000
C          C       0.20819   0.61920   0.00000
C          C       0.34291   0.52702   0.00000
C          C       0.47298   0.81589   0.00000
C          C       0.18411   0.65709   0.00000
C          C       0.36623   0.48885   0.00000
C          C       0.51115   0.87738   0.00000
C          C       0.12262   0.63377   0.00000
C          C       0.35603   0.62953   0.00000
C          C       0.37047   0.72650   0.00000
C          C       0.27350   0.64397   0.00000
H          H       0.68022   0.48303   0.00000
H          H       0.51697   0.19719   0.00000
H          H       0.80281   0.31978   0.00000
H          H       0.62388   0.53594   0.00000
H          H       0.46406   0.08794   0.00000
H          H       0.91206   0.37612   0.00000
H          H       0.46020   0.36849   0.00000
H          H       0.63151   0.09171   0.00000
H          H       0.90829   0.53980   0.00000
H          H       0.51543   0.31588   0.00000
H          H       0.68412   0.19955   0.00000
H          H       0.80045   0.48457   0.00000
H          H       0.42019   0.42361   0.00000
H          H       0.57639   0.99658   0.00000
H          H       0.00342   0.57981   0.00000
H          H       0.51351   0.59215   0.00000
H          H       0.40785   0.92136   0.00000
H          H       0.07864   0.48649   0.00000
H          H       0.47286   0.65929   0.00000
H          H       0.34071   0.81357   0.00000
H          H       0.18643   0.52714   0.00000
H          H       0.29518   0.50814   0.00000
H          H       0.49186   0.78704   0.00000
H          H       0.21296   0.70482   0.00000
H          H       0.33612   0.44134   0.00000
H          H       0.55866   0.89478   0.00000
H          H       0.10522   0.66388   0.00000
N          N       0.29647   0.60728   0.00000
N          N       0.39272   0.68919   0.00000
N          N       0.31081   0.70353   0.00000
C          C       0.63585   0.36292   0.50000
C          C       0.63708   0.27293   0.50000
C          C       0.72707   0.36415   0.50000
C          C       0.60220   0.39523   0.50000
C          C       0.60477   0.20697   0.50000
C          C       0.79303   0.39780   0.50000
C          C       0.63216   0.45766   0.50000
C          C       0.54234   0.17450   0.50000
C          C       0.82550   0.36784   0.50000
C          C       0.60032   0.48791   0.50000
C          C       0.51209   0.11241   0.50000
C          C       0.88759   0.39968   0.50000
C          C       0.53826   0.45689   0.50000
C          C       0.54311   0.08137   0.50000
C          C       0.91863   0.46174   0.50000
C          C       0.50799   0.39437   0.50000
C          C       0.60563   0.11362   0.50000
C          C       0.88638   0.49201   0.50000
C          C       0.53973   0.36397   0.50000
C          C       0.63603   0.17576   0.50000
C          C       0.82424   0.46027   0.50000
N          N       0.50849   0.49092   0.50000
N          N       0.50908   0.01757   0.50000
N          N       0.98243   0.49151   0.50000
N          N       0.60671   0.30275   0.50000
N          N       0.69725   0.30396   0.50000
N          N       0.69604   0.39329   0.50000
C          C       0.45153   0.47067   0.50000
C          C       0.52933   0.98086   0.50000
C          C       0.01914   0.54847   0.50000
C          C       0.42783   0.51177   0.50000
C          C       0.48823   0.91606   0.50000
C          C       0.08394   0.57217   0.50000
C          C       0.46582   0.57358   0.50000
C          C       0.42642   0.89224   0.50000
C          C       0.10776   0.53418   0.50000
C          C       0.44257   0.61181   0.50000
C          C       0.38819   0.83076   0.50000
C          C       0.16924   0.55743   0.50000
C          C       0.38080   0.58899   0.50000
C          C       0.41101   0.79181   0.50000
C          C       0.20819   0.61920   0.50000
C          C       0.34291   0.52702   0.50000
C          C       0.47298   0.81589   0.50000
C          C       0.18411   0.65709   0.50000
C          C       0.36623   0.48885   0.50000
C          C       0.51115   0.87738   0.50000
C          C       0.12262   0.63377   0.50000
C          C       0.35603   0.62953   0.50000
C          C       0.37047   0.72650   0.50000
C          C       0.27350   0.64397   0.50000
H          H       0.68022   0.48303   0.50000
H          H       0.51697   0.19719   0.50000
H          H       0.80281   0.31978   0.50000
H          H       0.62388   0.53594   0.50000
H          H       0.46406   0.08794   0.50000
H          H       0.91206   0.37612   0.50000
H          H       0.46020   0.36849   0.50000
H          H       0.63151   0.09171   0.50000
H          H       0.90829   0.53980   0.50000
H          H       0.51543   0.31588   0.50000
H          H       0.68412   0.19955   0.50000
H          H       0.80045   0.48457   0.50000
H          H       0.42019   0.42361   0.50000
H          H       0.57639   0.99658   0.50000
H          H       0.00342   0.57981   0.50000
H          H       0.51351   0.59215   0.50000
H          H       0.40785   0.92136   0.50000
H          H       0.07864   0.48649   0.50000
H          H       0.47286   0.65929   0.50000
H          H       0.34071   0.81357   0.50000
H          H       0.18643   0.52714   0.50000
H          H       0.29518   0.50814   0.50000
H          H       0.49186   0.78704   0.50000
H          H       0.21296   0.70482   0.50000
H          H       0.33612   0.44134   0.50000
H          H       0.55866   0.89478   0.50000
H          H       0.10522   0.66388   0.50000
N          N       0.29647   0.60728   0.50000
N          N       0.39272   0.68919   0.50000
N          N       0.31081   0.70353   0.50000
