data_crystal

_cell_length_a    45.14420
_cell_length_b    44.60940
_cell_length_c    7.24180
_cell_angle_alpha 89.97150
_cell_angle_beta  89.99310
_cell_angle_gamma 120.00700

_space_group_name_Hall 'P 1'
_space_group_name_H-M_alt 'P 1'

loop_
_symmetry_equiv_pos_as_xyz
 'x,y,z'

loop_
_atom_site_label
_atom_site_type_symbol
_atom_site_fract_x
_atom_site_fract_y
_atom_site_fract_z
H          H       0.32132   0.20732   0.01852
H          H       0.63833   0.36796   0.08446
H          H       0.63217   0.26879   0.03699
H          H       0.89104   0.68472   0.23930
H          H       0.72655   0.36195   0.41718
H          H       0.77096   0.13611   0.08218
H          H       0.03466   0.06398   0.11917
H          H       0.86012   0.63682   0.44239
H          H       0.93886   0.97238   0.00134
H          H       0.79135   0.10439   0.41812
H          H       0.36609   0.22417   0.23447
H          H       0.03331   0.97112   0.44787
C          C       0.68457   0.36931   0.49725
C          C       0.64985   0.35247   0.04886
C          C       0.59233   0.29843   0.09287
C          C       0.68225   0.25829   0.39632
C          C       0.69855   0.23852   0.39160
C          C       0.73256   0.25269   0.44982
C          C       0.75014   0.28696   0.01597
C          C       0.73378   0.30658   0.02396
N          N       0.48348   0.24686   0.14780
C          C       0.46263   0.21354   0.14651
C          C       0.79418   0.21842   0.45125
C          C       0.77349   0.18401   0.01091
C          C       0.78728   0.16214   0.03036
C          C       0.82199   0.17416   0.48905
C          C       0.84250   0.20858   0.42763
C          C       0.82877   0.23049   0.40992
C          C       0.83686   0.15107   0.01086
C          C       0.81734   0.11546   0.46927
C          C       0.83154   0.09394   0.48734
C          C       0.86564   0.10760   0.04517
C          C       0.88513   0.14304   0.08829
C          C       0.87088   0.16452   0.07198
C          C       0.88066   0.08481   0.05633
N          N       0.91355   0.09790   0.07656
C          C       0.93098   0.07835   0.08228
C          C       0.91503   0.04387   0.14511
C          C       0.93275   0.02549   0.14227
C          C       0.96661   0.04106   0.07437
C          C       0.98261   0.07594   0.01649
C          C       0.96504   0.09440   0.02309
C          C       0.98471   0.02084   0.05482
C          C       0.96645   0.98533   0.01039
H          H       0.65625   0.24680   0.34491
H          H       0.68490   0.21215   0.34044
H          H       0.77593   0.29804   0.06964
H          H       0.74753   0.33227   0.08408
H          H       0.47224   0.19579   0.12717
H          H       0.74685   0.17436   0.04635
H          H       0.86909   0.21847   0.39056
H          H       0.84512   0.25686   0.36237
H          H       0.81613   0.06673   0.45198
H          H       0.91136   0.15400   0.13579
H          H       0.88637   0.19157   0.10967
H          H       0.86408   0.05719   0.03535
H          H       0.88920   0.03140   0.19948
H          H       0.92002   0.99922   0.19511
H          H       0.00824   0.08866   0.45900
H          H       0.97742   0.12094   0.47452
C          C       0.63015   0.31607   0.05786
C          C       0.64663   0.29670   0.02700
C          C       0.69955   0.29253   0.46467
C          C       0.73925   0.42668   0.02698
C          C       0.75783   0.46274   0.00567
C          C       0.74220   0.48069   0.43519
C          C       0.70723   0.46191   0.38692
C          C       0.68864   0.42584   0.40704
N          N       0.74781   0.23105   0.45128
C          C       0.78050   0.24232   0.43629
C          C       0.77774   0.57639   0.33769
C          C       0.81192   0.59065   0.39641
C          C       0.83420   0.62652   0.39161
C          C       0.82274   0.64888   0.32815
C          C       0.78856   0.63446   0.26824
C          C       0.76631   0.59859   0.27305
C          C       0.84618   0.68708   0.32698
C          C       0.88102   0.70133   0.28049
C          C       0.90321   0.73722   0.28414
C          C       0.89098   0.75961   0.33258
C          C       0.85615   0.74552   0.37715
C          C       0.83400   0.70963   0.37496
C          C       0.91498   0.79735   0.34108
N          N       0.90372   0.81890   0.36380
C          C       0.92493   0.85577   0.38368
C          C       0.95789   0.87100   0.46160
C          C       0.97693   0.90686   0.48956
C          C       0.96374   0.92847   0.43745
C          C       0.93084   0.91289   0.35633
C          C       0.91156   0.87692   0.33288
C          C       0.98349   0.96659   0.47673
C          C       0.01955   0.98437   0.48494
H          H       0.75199   0.41376   0.08615
H          H       0.78456   0.47702   0.04590
H          H       0.69398   0.47455   0.33246
H          H       0.66205   0.41205   0.36389
H          H       0.79830   0.26953   0.41011
H          H       0.82119   0.57401   0.44833
H          H       0.77918   0.65089   0.21464
H          H       0.74016   0.58813   0.22541
H          H       0.92993   0.74755   0.24815
H          H       0.84630   0.76233   0.41750
H          H       0.80752   0.69948   0.41544
H          H       0.94217   0.80679   0.32542
H          H       0.96825   0.85509   0.00949
H          H       0.00134   0.91729   0.05978
H          H       0.91997   0.92833   0.30821
H          H       0.88623   0.86532   0.27197
C          C       0.68177   0.31306   0.48348
C          C       0.70014   0.34930   0.46310
C          C       0.70441   0.40773   0.47700
C          C       0.57327   0.31423   0.03800
C          C       0.53773   0.29719   0.06164
C          C       0.52014   0.26368   0.13416
C          C       0.53878   0.24781   0.19257
C          C       0.57451   0.26512   0.17352
N          N       0.76282   0.51775   0.41680
C          C       0.75365   0.53863   0.34416
C          C       0.42519   0.19942   0.15224
C          C       0.41139   0.22054   0.19978
C          C       0.37596   0.20735   0.19515
C          C       0.35358   0.17282   0.14139
C          C       0.36749   0.15155   0.09740
C          C       0.40293   0.16469   0.10388
C          C       0.31605   0.15937   0.12604
C          C       0.30372   0.18088   0.06041
C          C       0.26853   0.16819   0.04191
C          C       0.24487   0.13370   0.08773
C          C       0.25699   0.11215   0.15457
C          C       0.29223   0.12488   0.17389
C          C       0.20785   0.12073   0.06280
N          N       0.18530   0.08858   0.09854
C          C       0.14866   0.07234   0.07927
C          C       0.13208   0.08973   0.00982
C          C       0.09632   0.07249   0.49523
C          C       0.07631   0.03763   0.05024
C          C       0.09299   0.02034   0.11865
C          C       0.12877   0.03760   0.13243
C          C       0.03825   0.01948   0.03619
C          C       0.02052   0.03728   0.07329
H          H       0.58543   0.33919   0.46963
H          H       0.52345   0.30947   0.01600
H          H       0.52592   0.22252   0.25717
H          H       0.58805   0.25252   0.22545
H          H       0.72832   0.52901   0.28697
H          H       0.42812   0.24727   0.24047
H          H       0.35106   0.12508   0.05203
H          H       0.41306   0.14803   0.06550
H          H       0.25979   0.18519   0.48857
H          H       0.23912   0.08556   0.19302
H          H       0.30082   0.10789   0.22901
H          H       0.20022   0.13874   0.01297
H          H       0.14626   0.11630   0.46371
H          H       0.08437   0.08625   0.43688
H          H       0.07838   0.99373   0.16564
H          H       0.14124   0.02411   0.18739
H          H       0.32132   0.20732   0.51852
H          H       0.63833   0.36796   0.58445
H          H       0.63217   0.26879   0.53699
H          H       0.89104   0.68472   0.73930
H          H       0.72655   0.36195   0.91718
H          H       0.77096   0.13611   0.58218
H          H       0.03466   0.06398   0.61917
H          H       0.86012   0.63682   0.94239
H          H       0.93886   0.97238   0.50134
H          H       0.79135   0.10439   0.91812
H          H       0.36609   0.22417   0.73447
H          H       0.03331   0.97112   0.94787
C          C       0.68457   0.36931   0.99725
C          C       0.64985   0.35247   0.54886
C          C       0.59233   0.29843   0.59286
C          C       0.68225   0.25829   0.89632
C          C       0.69855   0.23852   0.89160
C          C       0.73256   0.25269   0.94981
C          C       0.75014   0.28696   0.51597
C          C       0.73378   0.30658   0.52396
N          N       0.48348   0.24686   0.64780
C          C       0.46263   0.21354   0.64651
C          C       0.79418   0.21842   0.95125
C          C       0.77349   0.18401   0.51091
C          C       0.78728   0.16214   0.53036
C          C       0.82199   0.17416   0.98905
C          C       0.84250   0.20858   0.92763
C          C       0.82877   0.23049   0.90992
C          C       0.83686   0.15107   0.51086
C          C       0.81734   0.11546   0.96927
C          C       0.83154   0.09394   0.98734
C          C       0.86564   0.10760   0.54517
C          C       0.88513   0.14304   0.58830
C          C       0.87088   0.16452   0.57198
C          C       0.88066   0.08481   0.55632
N          N       0.91355   0.09790   0.57656
C          C       0.93098   0.07835   0.58227
C          C       0.91503   0.04387   0.64511
C          C       0.93275   0.02549   0.64227
C          C       0.96661   0.04106   0.57437
C          C       0.98261   0.07594   0.51649
C          C       0.96504   0.09440   0.52309
C          C       0.98471   0.02084   0.55483
C          C       0.96645   0.98533   0.51039
H          H       0.65625   0.24680   0.84491
H          H       0.68490   0.21215   0.84044
H          H       0.77593   0.29804   0.56964
H          H       0.74753   0.33227   0.58408
H          H       0.47224   0.19579   0.62716
H          H       0.74685   0.17436   0.54635
H          H       0.86909   0.21847   0.89057
H          H       0.84512   0.25686   0.86237
H          H       0.81613   0.06673   0.95198
H          H       0.91136   0.15400   0.63579
H          H       0.88637   0.19157   0.60967
H          H       0.86408   0.05719   0.53535
H          H       0.88920   0.03140   0.69949
H          H       0.92002   0.99922   0.69511
H          H       0.00824   0.08866   0.95900
H          H       0.97742   0.12094   0.97452
C          C       0.63015   0.31607   0.55786
C          C       0.64663   0.29670   0.52699
C          C       0.69955   0.29253   0.96467
C          C       0.73925   0.42668   0.52698
C          C       0.75783   0.46274   0.50567
C          C       0.74220   0.48069   0.93519
C          C       0.70723   0.46191   0.88692
C          C       0.68864   0.42584   0.90704
N          N       0.74781   0.23105   0.95128
C          C       0.78050   0.24232   0.93629
C          C       0.77774   0.57639   0.83769
C          C       0.81192   0.59065   0.89641
C          C       0.83420   0.62652   0.89161
C          C       0.82274   0.64888   0.82815
C          C       0.78856   0.63446   0.76824
C          C       0.76631   0.59859   0.77305
C          C       0.84618   0.68708   0.82698
C          C       0.88102   0.70133   0.78049
C          C       0.90321   0.73722   0.78414
C          C       0.89098   0.75961   0.83258
C          C       0.85615   0.74552   0.87716
C          C       0.83400   0.70963   0.87496
C          C       0.91498   0.79735   0.84108
N          N       0.90372   0.81890   0.86380
C          C       0.92493   0.85577   0.88368
C          C       0.95789   0.87100   0.96160
C          C       0.97693   0.90686   0.98956
C          C       0.96374   0.92847   0.93745
C          C       0.93084   0.91289   0.85633
C          C       0.91156   0.87692   0.83288
C          C       0.98349   0.96659   0.97672
C          C       0.01955   0.98437   0.98494
H          H       0.75199   0.41376   0.58615
H          H       0.78456   0.47702   0.54590
H          H       0.69398   0.47455   0.83246
H          H       0.66205   0.41205   0.86389
H          H       0.79830   0.26953   0.91011
H          H       0.82119   0.57401   0.94834
H          H       0.77918   0.65089   0.71464
H          H       0.74016   0.58813   0.72541
H          H       0.92993   0.74755   0.74815
H          H       0.84630   0.76233   0.91750
H          H       0.80752   0.69948   0.91544
H          H       0.94217   0.80679   0.82541
H          H       0.96825   0.85509   0.50949
H          H       0.00134   0.91729   0.55978
H          H       0.91997   0.92833   0.80821
H          H       0.88623   0.86532   0.77197
C          C       0.68177   0.31306   0.98348
C          C       0.70014   0.34930   0.96310
C          C       0.70441   0.40773   0.97699
C          C       0.57327   0.31423   0.53800
C          C       0.53773   0.29719   0.56163
C          C       0.52014   0.26368   0.63416
C          C       0.53878   0.24781   0.69257
C          C       0.57451   0.26512   0.67352
N          N       0.76282   0.51775   0.91680
C          C       0.75365   0.53863   0.84416
C          C       0.42519   0.19942   0.65224
C          C       0.41139   0.22054   0.69978
C          C       0.37596   0.20735   0.69515
C          C       0.35358   0.17282   0.64140
C          C       0.36749   0.15155   0.59740
C          C       0.40293   0.16469   0.60388
C          C       0.31605   0.15937   0.62604
C          C       0.30372   0.18088   0.56041
C          C       0.26853   0.16819   0.54191
C          C       0.24487   0.13370   0.58774
C          C       0.25699   0.11215   0.65458
C          C       0.29223   0.12488   0.67390
C          C       0.20785   0.12073   0.56280
N          N       0.18530   0.08858   0.59854
C          C       0.14866   0.07234   0.57927
C          C       0.13208   0.08973   0.50982
C          C       0.09632   0.07249   0.99523
C          C       0.07631   0.03763   0.55024
C          C       0.09299   0.02034   0.61865
C          C       0.12877   0.03760   0.63243
C          C       0.03825   0.01948   0.53619
C          C       0.02052   0.03728   0.57329
H          H       0.58543   0.33919   0.96964
H          H       0.52345   0.30947   0.51600
H          H       0.52592   0.22252   0.75717
H          H       0.58805   0.25252   0.72545
H          H       0.72832   0.52901   0.78697
H          H       0.42812   0.24727   0.74047
H          H       0.35106   0.12508   0.55202
H          H       0.41306   0.14803   0.56550
H          H       0.25979   0.18519   0.98857
H          H       0.23912   0.08556   0.69302
H          H       0.30082   0.10789   0.72901
H          H       0.20022   0.13874   0.51297
H          H       0.14626   0.11630   0.96371
H          H       0.08437   0.08625   0.93688
H          H       0.07838   0.99373   0.66564
H          H       0.14124   0.02411   0.68739
