data_crystal

_cell_length_a    51.35520
_cell_length_b    24.89770
_cell_length_c    9.45880
_cell_angle_alpha 63.80420
_cell_angle_beta  105.43200
_cell_angle_gamma 85.52030

_space_group_name_Hall 'P 1'
_space_group_name_H-M_alt 'P 1'

loop_
_symmetry_equiv_pos_as_xyz
 'x,y,z'

loop_
_atom_site_label
_atom_site_type_symbol
_atom_site_fract_x
_atom_site_fract_y
_atom_site_fract_z
C          C       0.09648   0.86364   0.15175
C          C       0.09541   0.80531   0.27009
C          C       0.11185   0.75216   0.29456
C          C       0.12992   0.75642   0.20465
C          C       0.13112   0.81472   0.08745
C          C       0.11462   0.86749   0.06210
N          N       0.21050   0.42894   0.25377
C          C       0.22413   0.37609   0.27304
N          N       0.25099   0.36968   0.28016
C          C       0.26389   0.41632   0.26282
N          N       0.25001   0.46940   0.24097
C          C       0.22349   0.47544   0.24024
C          C       0.20896   0.53235   0.22635
C          C       0.20964   0.32655   0.27909
C          C       0.29270   0.40961   0.26455
C          C       0.31323   0.35881   0.39651
C          C       0.34073   0.35319   0.40077
C          C       0.34797   0.39711   0.27065
C          C       0.32719   0.44681   0.13553
C          C       0.29977   0.45341   0.13359
C          C       0.21931   0.58583   0.17148
C          C       0.20596   0.63904   0.16168
C          C       0.18219   0.63974   0.20811
C          C       0.17189   0.58633   0.26397
C          C       0.18517   0.53307   0.27317
C          C       0.18083   0.34001   0.19941
C          C       0.16759   0.29366   0.19385
C          C       0.18289   0.23302   0.27067
C          C       0.21154   0.21921   0.35481
C          C       0.22481   0.26565   0.35784
C          C       0.16825   0.69708   0.19270
C          C       0.37745   0.39202   0.28329
C          C       0.16947   0.18339   0.26663
N          N       0.14566   0.70086   0.22877
C          C       0.09841   0.06277   0.14504
C          C       0.12042   0.04742   0.29044
C          C       0.13551   0.09058   0.30028
C          C       0.12931   0.14945   0.16258
C          C       0.10738   0.16480   0.01719
C          C       0.09199   0.12172   0.00780
N          N       0.14405   0.19529   0.16954
N          N       0.54686   0.63776   0.33714
C          C       0.57696   0.62001   0.39958
C          C       0.59072   0.56006   0.45193
C          C       0.61954   0.54461   0.49689
C          C       0.63531   0.58783   0.49647
C          C       0.62184   0.64705   0.45243
C          C       0.59297   0.66276   0.40548
N          N       0.38490   0.43166   0.16456
C          C       0.08187   0.01746   0.13697
C          C       0.05387   0.02504   0.12887
C          C       0.03852   0.98251   0.10903
C          C       0.05157   0.93104   0.10518
C          C       0.08036   0.92084   0.12955
C          C       0.09477   0.96529   0.14006
C          C       0.04108   0.07301   0.14458
C          C       0.01339   0.08087   0.13309
C          C       0.99709   0.04226   0.09996
C          C       0.01004   0.99141   0.09332
C          C       0.99465   0.94911   0.07254
C          C       0.00758   0.90047   0.05956
C          C       0.03541   0.89190   0.07408
C          C       0.96839   0.05222   0.07693
C          C       0.95366   0.00901   0.06060
C          C       0.96654   0.95708   0.06259
C          C       0.95025   0.91104   0.05848
C          C       0.92823   0.92459   0.41484
C          C       0.91369   0.87976   0.40999
C          C       0.92082   0.82094   0.05063
C          C       0.94220   0.80859   0.19528
C          C       0.95697   0.85298   0.19952
N          N       0.84707   0.51838   0.04807
C          C       0.83551   0.56978   0.03246
N          N       0.80850   0.57847   0.04501
C          C       0.79481   0.53544   0.07724
N          N       0.80694   0.47689   0.10162
C          C       0.83351   0.46827   0.08186
C          C       0.84574   0.41559   0.09276
C          C       0.85023   0.61991   0.00331
C          C       0.76664   0.54830   0.08508
C          C       0.75972   0.59165   0.13418
C          C       0.73265   0.60736   0.13057
C          C       0.71207   0.57966   0.07859
C          C       0.71898   0.53601   0.03100
C          C       0.74600   0.52020   0.03504
C          C       0.83518   0.35833   0.15329
C          C       0.84688   0.30838   0.15407
C          C       0.87037   0.30846   0.09175
C          C       0.88163   0.36431   0.03624
C          C       0.87062   0.41364   0.04071
C          C       0.87288   0.61532   0.13292
C          C       0.88555   0.66490   0.10931
C          C       0.87598   0.71928   0.45506
C          C       0.85362   0.72317   0.32477
C          C       0.84060   0.67404   0.34947
C          C       0.88117   0.25839   0.08852
C          C       0.68326   0.59891   0.06666
C          C       0.88858   0.77271   0.42928
N          N       0.90701   0.77260   0.05414
N          N       0.66445   0.57122   0.02729
C          C       0.95295   0.10868   0.06112
C          C       0.95416   0.17271   0.44750
C          C       0.93756   0.22161   0.43340
C          C       0.91725   0.21145   0.02777
C          C       0.91550   0.14676   0.13182
C          C       0.93374   0.11001   0.12555
N          N       0.90253   0.25899   0.01664
H          H       0.08232   0.80090   0.34595
H          H       0.11092   0.70744   0.38553
H          H       0.14399   0.81982   0.01076
H          H       0.11592   0.91148   0.47136
H          H       0.30798   0.32444   0.49799
H          H       0.35647   0.31477   0.00682
H          H       0.33235   0.48103   0.03333
H          H       0.28395   0.49220   0.02941
H          H       0.23756   0.58653   0.13436
H          H       0.21413   0.67992   0.11684
H          H       0.15363   0.58600   0.30074
H          H       0.17707   0.49211   0.31859
H          H       0.16877   0.38671   0.13755
H          H       0.14543   0.30491   0.13000
H          H       0.22368   0.17257   0.41639
H          H       0.24703   0.25418   0.42080
H          H       0.17734   0.73656   0.14858
H          H       0.39271   0.35576   0.39619
H          H       0.18161   0.13664   0.34310
H          H       0.12574   0.00261   0.39785
H          H       0.15148   0.07831   0.41694
H          H       0.10247   0.21019   0.41090
H          H       0.07514   0.13418   0.39404
H          H       0.57910   0.52552   0.45430
H          H       0.62972   0.49879   0.03107
H          H       0.63331   0.68196   0.44748
H          H       0.58295   0.70902   0.36828
H          H       0.11672   0.95808   0.15724
H          H       0.05264   0.10421   0.16937
H          H       0.00498   0.11717   0.15265
H          H       0.99606   0.86902   0.03602
H          H       0.04412   0.85472   0.05871
H          H       0.93177   0.01617   0.04449
H          H       0.92253   0.96957   0.30623
H          H       0.89700   0.89167   0.29652
H          H       0.94749   0.76391   0.30475
H          H       0.97373   0.84201   0.31266
H          H       0.77524   0.61370   0.17427
H          H       0.72781   0.64107   0.16810
H          H       0.70335   0.51460   0.48831
H          H       0.75033   0.48792   0.49202
H          H       0.81878   0.35434   0.20618
H          H       0.83909   0.26720   0.20248
H          H       0.89933   0.36494   0.49417
H          H       0.87950   0.45353   0.49900
H          H       0.88016   0.57410   0.25321
H          H       0.90267   0.66108   0.21172
H          H       0.84604   0.76442   0.20475
H          H       0.82298   0.67806   0.24935
H          H       0.87258   0.21816   0.13343
H          H       0.67811   0.63687   0.08889
H          H       0.88199   0.81154   0.30506
H          H       0.96773   0.18044   0.37349
H          H       0.93820   0.26800   0.35068
H          H       0.90496   0.13177   0.22240
C          C       0.53252   0.69628   0.18983
C          C       0.53167   0.59528   0.42275
C          C       0.54528   0.72478   0.07029
C          C       0.53326   0.78395   0.43802
C          C       0.50753   0.81484   0.41824
C          C       0.49377   0.78562   0.03081
C          C       0.50623   0.72698   0.16659
C          C       0.54201   0.56050   0.09605
C          C       0.53026   0.51304   0.18080
C          C       0.50704   0.49942   0.09560
C          C       0.49690   0.53449   0.41980
C          C       0.50836   0.58335   0.33513
N          N       0.49592   0.44769   0.18659
C          C       0.46694   0.45268   0.17569
C          C       0.51468   0.38851   0.30739
C          C       0.53341   0.37885   0.46015
C          C       0.55253   0.32274   0.06927
C          C       0.55185   0.27398   0.03382
C          C       0.53120   0.28082   0.39298
C          C       0.51251   0.33725   0.28223
C          C       0.44455   0.47875   0.02535
C          C       0.41797   0.46909   0.02364
C          C       0.41285   0.43570   0.17185
C          C       0.43461   0.41318   0.32241
C          C       0.46096   0.42363   0.32313
N          N       0.49560   0.87598   0.28458
N          N       0.57186   0.21737   0.14177
H          H       0.79601   0.44241   0.13035
H          H       0.56503   0.70150   0.08297
H          H       0.54364   0.80598   0.34890
H          H       0.47365   0.80871   0.01466
H          H       0.49607   0.70658   0.25787
H          H       0.55979   0.57012   0.16414
H          H       0.53957   0.48879   0.31374
H          H       0.48187   0.52181   0.34472
H          H       0.50056   0.60840   0.19992
H          H       0.53261   0.41341   0.49934
H          H       0.56747   0.31663   0.18331
H          H       0.52978   0.24254   0.36784
H          H       0.49649   0.34049   0.17757
H          H       0.44696   0.50653   0.40787
H          H       0.40159   0.48316   0.40695
H          H       0.43126   0.38752   0.43966
H          H       0.47667   0.41429   0.43599
H          H       0.47767   0.90208   0.27623
H          H       0.50468   0.89626   0.19303
H          H       0.58706   0.21105   0.24967
H          H       0.57238   0.18169   0.11215
C          C       0.09648   0.86364   0.65175
C          C       0.09541   0.80531   0.77009
C          C       0.11185   0.75216   0.79456
C          C       0.12992   0.75642   0.70465
C          C       0.13112   0.81472   0.58745
C          C       0.11462   0.86749   0.56210
N          N       0.21050   0.42894   0.75378
C          C       0.22413   0.37609   0.77304
N          N       0.25099   0.36968   0.78016
C          C       0.26389   0.41632   0.76282
N          N       0.25001   0.46940   0.74097
C          C       0.22349   0.47544   0.74024
C          C       0.20896   0.53235   0.72635
C          C       0.20964   0.32655   0.77909
C          C       0.29270   0.40961   0.76455
C          C       0.31323   0.35881   0.89651
C          C       0.34073   0.35319   0.90077
C          C       0.34797   0.39711   0.77065
C          C       0.32719   0.44681   0.63553
C          C       0.29977   0.45341   0.63359
C          C       0.21931   0.58583   0.67148
C          C       0.20596   0.63904   0.66168
C          C       0.18219   0.63974   0.70811
C          C       0.17189   0.58633   0.76397
C          C       0.18517   0.53307   0.77317
C          C       0.18083   0.34001   0.69941
C          C       0.16759   0.29366   0.69385
C          C       0.18289   0.23302   0.77067
C          C       0.21154   0.21921   0.85481
C          C       0.22481   0.26565   0.85784
C          C       0.16825   0.69708   0.69270
C          C       0.37745   0.39202   0.78329
C          C       0.16947   0.18339   0.76663
N          N       0.14566   0.70086   0.72877
C          C       0.09841   0.06277   0.64504
C          C       0.12042   0.04742   0.79044
C          C       0.13551   0.09058   0.80028
C          C       0.12931   0.14945   0.66258
C          C       0.10738   0.16480   0.51719
C          C       0.09199   0.12172   0.50780
N          N       0.14405   0.19529   0.66954
N          N       0.54686   0.63776   0.83714
C          C       0.57696   0.62001   0.89958
C          C       0.59072   0.56006   0.95193
C          C       0.61954   0.54461   0.99689
C          C       0.63531   0.58783   0.99647
C          C       0.62184   0.64705   0.95243
C          C       0.59297   0.66276   0.90548
N          N       0.38490   0.43166   0.66456
C          C       0.08187   0.01746   0.63697
C          C       0.05387   0.02504   0.62887
C          C       0.03852   0.98251   0.60903
C          C       0.05157   0.93104   0.60518
C          C       0.08036   0.92084   0.62955
C          C       0.09477   0.96529   0.64006
C          C       0.04108   0.07301   0.64458
C          C       0.01339   0.08087   0.63309
C          C       0.99709   0.04226   0.59996
C          C       0.01004   0.99141   0.59332
C          C       0.99465   0.94911   0.57254
C          C       0.00758   0.90047   0.55956
C          C       0.03541   0.89190   0.57408
C          C       0.96839   0.05222   0.57693
C          C       0.95366   0.00901   0.56060
C          C       0.96654   0.95708   0.56259
C          C       0.95025   0.91104   0.55848
C          C       0.92823   0.92459   0.91484
C          C       0.91369   0.87976   0.90999
C          C       0.92082   0.82094   0.55063
C          C       0.94220   0.80859   0.69528
C          C       0.95697   0.85298   0.69952
N          N       0.84707   0.51838   0.54807
C          C       0.83551   0.56978   0.53246
N          N       0.80850   0.57847   0.54501
C          C       0.79481   0.53544   0.57724
N          N       0.80694   0.47689   0.60162
C          C       0.83351   0.46827   0.58186
C          C       0.84574   0.41559   0.59276
C          C       0.85023   0.61991   0.50331
C          C       0.76664   0.54830   0.58508
C          C       0.75972   0.59165   0.63418
C          C       0.73265   0.60736   0.63057
C          C       0.71207   0.57966   0.57859
C          C       0.71898   0.53601   0.53100
C          C       0.74600   0.52020   0.53504
C          C       0.83518   0.35833   0.65329
C          C       0.84688   0.30838   0.65407
C          C       0.87037   0.30846   0.59175
C          C       0.88163   0.36431   0.53624
C          C       0.87062   0.41364   0.54071
C          C       0.87288   0.61532   0.63292
C          C       0.88555   0.66490   0.60931
C          C       0.87598   0.71928   0.95506
C          C       0.85362   0.72317   0.82478
C          C       0.84060   0.67404   0.84947
C          C       0.88117   0.25839   0.58852
C          C       0.68326   0.59891   0.56666
C          C       0.88858   0.77271   0.92927
N          N       0.90701   0.77260   0.55414
N          N       0.66445   0.57122   0.52729
C          C       0.95295   0.10868   0.56112
C          C       0.95416   0.17271   0.94750
C          C       0.93756   0.22161   0.93340
C          C       0.91725   0.21145   0.52777
C          C       0.91550   0.14676   0.63182
C          C       0.93374   0.11001   0.62555
N          N       0.90253   0.25899   0.51664
H          H       0.08232   0.80090   0.84595
H          H       0.11092   0.70744   0.88553
H          H       0.14399   0.81982   0.51076
H          H       0.11592   0.91148   0.97136
H          H       0.30798   0.32444   0.99798
H          H       0.35647   0.31477   0.50682
H          H       0.33235   0.48103   0.53333
H          H       0.28395   0.49220   0.52941
H          H       0.23756   0.58653   0.63436
H          H       0.21413   0.67992   0.61684
H          H       0.15363   0.58600   0.80074
H          H       0.17707   0.49211   0.81859
H          H       0.16877   0.38671   0.63755
H          H       0.14543   0.30491   0.63000
H          H       0.22368   0.17257   0.91639
H          H       0.24703   0.25418   0.92080
H          H       0.17734   0.73656   0.64858
H          H       0.39271   0.35576   0.89619
H          H       0.18161   0.13664   0.84310
H          H       0.12574   0.00261   0.89785
H          H       0.15148   0.07831   0.91694
H          H       0.10247   0.21019   0.91090
H          H       0.07514   0.13418   0.89404
H          H       0.57910   0.52552   0.95430
H          H       0.62972   0.49879   0.53107
H          H       0.63331   0.68196   0.94748
H          H       0.58295   0.70902   0.86828
H          H       0.11672   0.95808   0.65724
H          H       0.05264   0.10421   0.66937
H          H       0.00498   0.11717   0.65265
H          H       0.99606   0.86902   0.53602
H          H       0.04412   0.85472   0.55871
H          H       0.93177   0.01617   0.54449
H          H       0.92253   0.96957   0.80623
H          H       0.89700   0.89167   0.79652
H          H       0.94749   0.76391   0.80475
H          H       0.97373   0.84201   0.81266
H          H       0.77524   0.61370   0.67427
H          H       0.72781   0.64107   0.66810
H          H       0.70335   0.51460   0.98832
H          H       0.75033   0.48792   0.99203
H          H       0.81878   0.35434   0.70618
H          H       0.83909   0.26720   0.70248
H          H       0.89933   0.36494   0.99417
H          H       0.87950   0.45353   0.99900
H          H       0.88016   0.57410   0.75321
H          H       0.90267   0.66108   0.71172
H          H       0.84604   0.76442   0.70476
H          H       0.82298   0.67806   0.74935
H          H       0.87258   0.21816   0.63343
H          H       0.67811   0.63687   0.58889
H          H       0.88199   0.81154   0.80506
H          H       0.96773   0.18044   0.87349
H          H       0.93820   0.26800   0.85068
H          H       0.90496   0.13177   0.72240
C          C       0.53252   0.69628   0.68983
C          C       0.53167   0.59528   0.92275
C          C       0.54528   0.72478   0.57029
C          C       0.53326   0.78395   0.93802
C          C       0.50753   0.81484   0.91824
C          C       0.49377   0.78562   0.53081
C          C       0.50623   0.72698   0.66659
C          C       0.54201   0.56050   0.59605
C          C       0.53026   0.51304   0.68080
C          C       0.50704   0.49942   0.59560
C          C       0.49690   0.53449   0.91980
C          C       0.50836   0.58335   0.83513
N          N       0.49592   0.44769   0.68659
C          C       0.46694   0.45268   0.67569
C          C       0.51468   0.38851   0.80739
C          C       0.53341   0.37885   0.96016
C          C       0.55253   0.32274   0.56927
C          C       0.55185   0.27398   0.53382
C          C       0.53120   0.28082   0.89298
C          C       0.51251   0.33725   0.78222
C          C       0.44455   0.47875   0.52535
C          C       0.41797   0.46909   0.52365
C          C       0.41285   0.43570   0.67185
C          C       0.43461   0.41318   0.82241
C          C       0.46096   0.42363   0.82313
N          N       0.49560   0.87598   0.78458
N          N       0.57186   0.21737   0.64177
H          H       0.79601   0.44241   0.63035
H          H       0.56503   0.70150   0.58296
H          H       0.54364   0.80598   0.84890
H          H       0.47365   0.80871   0.51466
H          H       0.49607   0.70658   0.75787
H          H       0.55979   0.57012   0.66413
H          H       0.53957   0.48879   0.81374
H          H       0.48187   0.52181   0.84472
H          H       0.50056   0.60840   0.69992
H          H       0.53261   0.41341   0.99934
H          H       0.56747   0.31663   0.68331
H          H       0.52978   0.24254   0.86784
H          H       0.49649   0.34049   0.67757
H          H       0.44696   0.50653   0.90787
H          H       0.40159   0.48316   0.90695
H          H       0.43126   0.38752   0.93966
H          H       0.47667   0.41429   0.93598
H          H       0.47767   0.90208   0.77623
H          H       0.50468   0.89626   0.69303
H          H       0.58706   0.21105   0.74967
H          H       0.57238   0.18169   0.61215
