data_crystal

_cell_length_a    23.34510
_cell_length_b    23.34510
_cell_length_c    8.27100
_cell_angle_alpha 90.00000
_cell_angle_beta  90.00000
_cell_angle_gamma 120.00000

_space_group_name_Hall 'P 1'
_space_group_name_H-M_alt 'P 1'

loop_
_symmetry_equiv_pos_as_xyz
 'x,y,z'

loop_
_atom_site_label
_atom_site_type_symbol
_atom_site_fract_x
_atom_site_fract_y
_atom_site_fract_z
N          N       0.49243   0.98423   0.02784
N          N       0.01577   0.50820   0.02784
N          N       0.49180   0.50757   0.02784
C          C       0.50507   0.94559   0.44400
C          C       0.05441   0.55948   0.44400
C          C       0.44052   0.49493   0.44400
C          C       0.46090   0.87429   0.44848
C          C       0.12571   0.58661   0.44848
C          C       0.41339   0.53910   0.44848
C          C       0.40118   0.84647   0.03004
C          C       0.15353   0.55471   0.03004
C          C       0.44529   0.59882   0.03004
C          C       0.35970   0.77886   0.03078
C          C       0.22114   0.58084   0.03078
C          C       0.41916   0.64030   0.03078
C          C       0.37676   0.73713   0.45156
C          C       0.26287   0.63963   0.45156
C          C       0.36037   0.62324   0.45156
C          C       0.43698   0.76567   0.37120
C          C       0.23433   0.67131   0.37120
C          C       0.32869   0.56302   0.37120
C          C       0.47841   0.83327   0.36893
C          C       0.16673   0.64514   0.36893
C          C       0.35486   0.52159   0.36893
C          C       0.52400   0.46978   0.03520
C          C       0.53022   0.05422   0.03520
C          C       0.94578   0.47600   0.03520
C          C       0.50144   0.41031   0.45358
C          C       0.58969   0.09113   0.45358
C          C       0.90887   0.49856   0.45358
C          C       0.53602   0.37678   0.46232
C          C       0.62322   0.15924   0.46232
C          C       0.84076   0.46398   0.46232
C          C       0.59341   0.40146   0.05370
C          C       0.59854   0.19195   0.05370
C          C       0.80805   0.40659   0.05370
C          C       0.61513   0.46035   0.13699
C          C       0.53965   0.15478   0.13699
C          C       0.84522   0.38487   0.13699
C          C       0.58069   0.49399   0.12721
C          C       0.50601   0.08670   0.12721
C          C       0.91330   0.41931   0.12721
C          C       0.63096   0.36647   0.05956
C          C       0.63353   0.26449   0.05956
C          C       0.73551   0.36904   0.05956
N          N       0.59854   0.29799   0.06007
N          N       0.70201   0.30055   0.06007
N          N       0.69945   0.40146   0.06007
H          H       0.54773   0.96440   0.36865
H          H       0.03560   0.58333   0.36865
H          H       0.41667   0.45227   0.36865
H          H       0.38659   0.87716   0.09278
H          H       0.12284   0.50943   0.09278
H          H       0.49057   0.61341   0.09278
H          H       0.31383   0.75930   0.09164
H          H       0.24070   0.55453   0.09164
H          H       0.44547   0.68617   0.09164
H          H       0.45238   0.73566   0.31111
H          H       0.26434   0.71672   0.31111
H          H       0.28328   0.54762   0.31111
H          H       0.52418   0.85354   0.30470
H          H       0.14646   0.67064   0.30470
H          H       0.32936   0.47582   0.30470
H          H       0.45814   0.38970   0.38055
H          H       0.61030   0.06844   0.38055
H          H       0.93156   0.54186   0.38055
H          H       0.51879   0.33249   0.39331
H          H       0.66751   0.18630   0.39331
H          H       0.81370   0.48121   0.39331
H          H       0.65806   0.47987   0.21211
H          H       0.52013   0.17819   0.21211
H          H       0.82181   0.34194   0.21211
H          H       0.59784   0.53913   0.19246
H          H       0.46087   0.05871   0.19246
H          H       0.94129   0.40216   0.19246
N          N       0.33333   0.66667   0.45215
N          N       0.49243   0.98423   0.52784
N          N       0.01577   0.50820   0.52784
N          N       0.49180   0.50757   0.52784
C          C       0.50507   0.94559   0.94400
C          C       0.05441   0.55948   0.94400
C          C       0.44052   0.49493   0.94400
C          C       0.46090   0.87429   0.94847
C          C       0.12571   0.58661   0.94847
C          C       0.41339   0.53910   0.94847
C          C       0.40118   0.84647   0.53004
C          C       0.15353   0.55471   0.53004
C          C       0.44529   0.59882   0.53004
C          C       0.35970   0.77886   0.53078
C          C       0.22114   0.58084   0.53078
C          C       0.41916   0.64030   0.53078
C          C       0.37676   0.73713   0.95156
C          C       0.26287   0.63963   0.95156
C          C       0.36037   0.62324   0.95156
C          C       0.43698   0.76567   0.87120
C          C       0.23433   0.67131   0.87120
C          C       0.32869   0.56302   0.87120
C          C       0.47841   0.83327   0.86893
C          C       0.16673   0.64514   0.86893
C          C       0.35486   0.52159   0.86893
C          C       0.52400   0.46978   0.53520
C          C       0.53022   0.05422   0.53520
C          C       0.94578   0.47600   0.53520
C          C       0.50144   0.41031   0.95357
C          C       0.58969   0.09113   0.95357
C          C       0.90887   0.49856   0.95357
C          C       0.53602   0.37678   0.96232
C          C       0.62322   0.15924   0.96232
C          C       0.84076   0.46398   0.96232
C          C       0.59341   0.40146   0.55370
C          C       0.59854   0.19195   0.55370
C          C       0.80805   0.40659   0.55370
C          C       0.61513   0.46035   0.63699
C          C       0.53965   0.15478   0.63699
C          C       0.84522   0.38487   0.63699
C          C       0.58069   0.49399   0.62721
C          C       0.50601   0.08670   0.62721
C          C       0.91330   0.41931   0.62721
C          C       0.63096   0.36647   0.55956
C          C       0.63353   0.26449   0.55956
C          C       0.73551   0.36904   0.55956
N          N       0.59854   0.29799   0.56007
N          N       0.70201   0.30055   0.56007
N          N       0.69945   0.40146   0.56007
H          H       0.54773   0.96440   0.86865
H          H       0.03560   0.58333   0.86865
H          H       0.41667   0.45227   0.86865
H          H       0.38659   0.87716   0.59278
H          H       0.12284   0.50943   0.59278
H          H       0.49057   0.61341   0.59278
H          H       0.31383   0.75930   0.59164
H          H       0.24070   0.55453   0.59164
H          H       0.44547   0.68617   0.59164
H          H       0.45238   0.73566   0.81110
H          H       0.26434   0.71672   0.81110
H          H       0.28328   0.54762   0.81110
H          H       0.52418   0.85354   0.80470
H          H       0.14646   0.67064   0.80470
H          H       0.32936   0.47582   0.80470
H          H       0.45814   0.38970   0.88055
H          H       0.61030   0.06844   0.88055
H          H       0.93156   0.54186   0.88055
H          H       0.51879   0.33249   0.89331
H          H       0.66751   0.18630   0.89331
H          H       0.81370   0.48121   0.89331
H          H       0.65806   0.47987   0.71211
H          H       0.52013   0.17819   0.71211
H          H       0.82181   0.34194   0.71211
H          H       0.59784   0.53913   0.69246
H          H       0.46087   0.05871   0.69246
H          H       0.94129   0.40216   0.69246
N          N       0.33333   0.66667   0.95215
