data_crystal

_cell_length_a    22.46740
_cell_length_b    16.38290
_cell_length_c    8.55780
_cell_angle_alpha 90.00000
_cell_angle_beta  83.53250
_cell_angle_gamma 90.00000

_space_group_name_Hall 'P 1'
_space_group_name_H-M_alt 'P 1'

loop_
_symmetry_equiv_pos_as_xyz
 'x,y,z'

loop_
_atom_site_label
_atom_site_type_symbol
_atom_site_fract_x
_atom_site_fract_y
_atom_site_fract_z
C          C       0.21193   0.56914   0.22556
C          C       0.78807   0.56914   0.27444
C          C       0.71193   0.06914   0.22556
C          C       0.28807   0.06914   0.27444
C          C       0.78807   0.43086   0.27444
C          C       0.21193   0.43086   0.22556
C          C       0.28807   0.93086   0.27444
C          C       0.71193   0.93086   0.22556
C          C       0.25199   0.56970   0.10164
C          C       0.74801   0.56970   0.39836
C          C       0.75199   0.06970   0.10164
C          C       0.24801   0.06970   0.39836
C          C       0.74801   0.43030   0.39836
C          C       0.25199   0.43030   0.10164
C          C       0.24801   0.93030   0.39836
C          C       0.75199   0.93030   0.10164
C          C       0.27826   0.64191   0.04558
C          C       0.72174   0.64191   0.45442
C          C       0.77826   0.14191   0.04558
C          C       0.22174   0.14191   0.45442
C          C       0.72174   0.35809   0.45442
C          C       0.27826   0.35809   0.04558
C          C       0.22174   0.85809   0.45442
C          C       0.77826   0.85809   0.04558
N          N       0.31573   0.64033   0.43116
N          N       0.68427   0.64033   0.06884
N          N       0.81573   0.14033   0.43116
N          N       0.18427   0.14033   0.06884
N          N       0.68427   0.35967   0.06884
N          N       0.31573   0.35967   0.43116
N          N       0.18427   0.85967   0.06884
N          N       0.81573   0.85967   0.43116
C          C       0.35372   0.69934   0.37284
C          C       0.64628   0.69934   0.12716
C          C       0.85372   0.19934   0.37284
C          C       0.14628   0.19934   0.12716
C          C       0.64628   0.30066   0.12716
C          C       0.35372   0.30066   0.37284
C          C       0.14628   0.80066   0.12716
C          C       0.85372   0.80066   0.37284
C          C       0.36015   0.76888   0.44394
C          C       0.63985   0.76888   0.05606
C          C       0.86015   0.26888   0.44394
C          C       0.13985   0.26888   0.05606
C          C       0.63985   0.23112   0.05606
C          C       0.36015   0.23112   0.44394
C          C       0.13985   0.73112   0.05606
C          C       0.86015   0.73112   0.44394
C          C       0.40673   0.81643   0.39870
C          C       0.59327   0.81643   0.10130
C          C       0.90673   0.31643   0.39870
C          C       0.09327   0.31643   0.10130
C          C       0.59327   0.18357   0.10130
C          C       0.40673   0.18357   0.39870
C          C       0.09327   0.68357   0.10130
C          C       0.90673   0.68357   0.39870
C          C       0.44719   0.79525   0.28248
C          C       0.55281   0.79525   0.21751
C          C       0.94719   0.29525   0.28248
C          C       0.05281   0.29525   0.21751
C          C       0.55281   0.20475   0.21751
C          C       0.44719   0.20475   0.28248
C          C       0.05281   0.70475   0.21751
C          C       0.94719   0.70475   0.28248
C          C       0.43784   0.72872   0.20543
C          C       0.56216   0.72872   0.29457
C          C       0.93784   0.22872   0.20543
C          C       0.06216   0.22872   0.29457
C          C       0.56216   0.27128   0.29457
C          C       0.43784   0.27128   0.20543
C          C       0.06216   0.77128   0.29457
C          C       0.93784   0.77128   0.20543
C          C       0.39160   0.68128   0.25068
C          C       0.60840   0.68128   0.24932
C          C       0.89160   0.18128   0.25068
C          C       0.10840   0.18128   0.24932
C          C       0.60840   0.31872   0.24932
C          C       0.39160   0.31872   0.25068
C          C       0.10840   0.81872   0.24932
C          C       0.89160   0.81872   0.25068
C          C       0.45357   0.96022   0.20759
C          C       0.54643   0.96022   0.29241
C          C       0.95357   0.46022   0.20759
C          C       0.04643   0.46022   0.29241
C          C       0.54643   0.03978   0.29241
C          C       0.45357   0.03978   0.20759
C          C       0.04643   0.53978   0.29241
C          C       0.95357   0.53978   0.20759
H          H       0.19751   0.62207   0.27703
H          H       0.80249   0.62207   0.22297
H          H       0.69751   0.12207   0.27703
H          H       0.30249   0.12207   0.22297
H          H       0.80249   0.37793   0.22297
H          H       0.19751   0.37793   0.27703
H          H       0.30249   0.87793   0.22297
H          H       0.69751   0.87793   0.27703
H          H       0.26966   0.69347   0.10799
H          H       0.73034   0.69347   0.39200
H          H       0.76966   0.19347   0.10799
H          H       0.23034   0.19347   0.39200
H          H       0.73034   0.30653   0.39200
H          H       0.26966   0.30653   0.10799
H          H       0.23034   0.80653   0.39200
H          H       0.76966   0.80653   0.10799
H          H       0.33177   0.78452   0.03889
H          H       0.66823   0.78452   0.46111
H          H       0.83177   0.28452   0.03889
H          H       0.16823   0.28452   0.46111
H          H       0.66823   0.21548   0.46111
H          H       0.33177   0.21548   0.03889
H          H       0.16823   0.71548   0.46111
H          H       0.83177   0.71548   0.03889
H          H       0.41319   0.86765   0.45864
H          H       0.58681   0.86765   0.04136
H          H       0.91319   0.36765   0.45864
H          H       0.08681   0.36765   0.04136
H          H       0.58681   0.13235   0.04136
H          H       0.41319   0.13235   0.45864
H          H       0.08681   0.63235   0.04136
H          H       0.91319   0.63235   0.45864
H          H       0.46774   0.71232   0.11342
H          H       0.53226   0.71232   0.38658
H          H       0.96774   0.21232   0.11342
H          H       0.03226   0.21232   0.38658
H          H       0.53226   0.28768   0.38658
H          H       0.46774   0.28768   0.11342
H          H       0.03226   0.78768   0.38658
H          H       0.96774   0.78768   0.11342
H          H       0.38656   0.62804   0.19492
H          H       0.61344   0.62804   0.30508
H          H       0.88656   0.12804   0.19492
H          H       0.11344   0.12804   0.30508
H          H       0.61344   0.37196   0.30508
H          H       0.38656   0.37196   0.19492
H          H       0.11344   0.87196   0.30508
H          H       0.88656   0.87196   0.19492
H          H       0.41742   0.93005   0.17462
H          H       0.58258   0.93005   0.32538
H          H       0.91742   0.43005   0.17462
H          H       0.08258   0.43005   0.32538
H          H       0.58258   0.06995   0.32538
H          H       0.41742   0.06995   0.17462
H          H       0.08258   0.56995   0.32538
H          H       0.91742   0.56995   0.17462
N          N       0.50000   0.83725   0.25000
N          N       0.00000   0.33725   0.25000
N          N       0.50000   0.16275   0.25000
N          N       0.00000   0.66275   0.25000
C          C       0.50000   0.91951   0.25000
C          C       0.00000   0.41951   0.25000
C          C       0.50000   0.08049   0.25000
C          C       0.00000   0.58049   0.25000
C          C       0.27129   0.50000   0.03985
C          C       0.72871   0.50000   0.46015
C          C       0.77129   0.00000   0.03985
C          C       0.22871   0.00000   0.46015
C          C       0.19216   0.50000   0.28723
C          C       0.80784   0.50000   0.21277
C          C       0.69216   0.00000   0.28723
C          C       0.30784   0.00000   0.21277
H          H       0.16343   0.50000   0.38710
H          H       0.83657   0.50000   0.11290
H          H       0.66343   0.00000   0.38710
H          H       0.33657   0.00000   0.11290
H          H       0.30309   0.50000   0.44571
H          H       0.69691   0.50000   0.05430
H          H       0.80309   0.00000   0.44571
H          H       0.19691   0.00000   0.05430
C          C       0.21193   0.56914   0.72556
C          C       0.78807   0.56914   0.77444
C          C       0.71193   0.06914   0.72556
C          C       0.28807   0.06914   0.77444
C          C       0.78807   0.43086   0.77444
C          C       0.21193   0.43086   0.72556
C          C       0.28807   0.93086   0.77444
C          C       0.71193   0.93086   0.72556
C          C       0.25199   0.56970   0.60164
C          C       0.74801   0.56970   0.89836
C          C       0.75199   0.06970   0.60164
C          C       0.24801   0.06970   0.89836
C          C       0.74801   0.43030   0.89836
C          C       0.25199   0.43030   0.60164
C          C       0.24801   0.93030   0.89836
C          C       0.75199   0.93030   0.60164
C          C       0.27826   0.64191   0.54558
C          C       0.72174   0.64191   0.95442
C          C       0.77826   0.14191   0.54558
C          C       0.22174   0.14191   0.95442
C          C       0.72174   0.35809   0.95442
C          C       0.27826   0.35809   0.54558
C          C       0.22174   0.85809   0.95442
C          C       0.77826   0.85809   0.54558
N          N       0.31573   0.64033   0.93116
N          N       0.68427   0.64033   0.56884
N          N       0.81573   0.14033   0.93116
N          N       0.18427   0.14033   0.56884
N          N       0.68427   0.35967   0.56884
N          N       0.31573   0.35967   0.93116
N          N       0.18427   0.85967   0.56884
N          N       0.81573   0.85967   0.93116
C          C       0.35372   0.69934   0.87284
C          C       0.64628   0.69934   0.62716
C          C       0.85372   0.19934   0.87284
C          C       0.14628   0.19934   0.62716
C          C       0.64628   0.30066   0.62716
C          C       0.35372   0.30066   0.87284
C          C       0.14628   0.80066   0.62716
C          C       0.85372   0.80066   0.87284
C          C       0.36015   0.76888   0.94394
C          C       0.63985   0.76888   0.55606
C          C       0.86015   0.26888   0.94394
C          C       0.13985   0.26888   0.55606
C          C       0.63985   0.23112   0.55606
C          C       0.36015   0.23112   0.94394
C          C       0.13985   0.73112   0.55606
C          C       0.86015   0.73112   0.94394
C          C       0.40673   0.81643   0.89870
C          C       0.59327   0.81643   0.60130
C          C       0.90673   0.31643   0.89870
C          C       0.09327   0.31643   0.60130
C          C       0.59327   0.18357   0.60130
C          C       0.40673   0.18357   0.89870
C          C       0.09327   0.68357   0.60130
C          C       0.90673   0.68357   0.89870
C          C       0.44719   0.79525   0.78248
C          C       0.55281   0.79525   0.71752
C          C       0.94719   0.29525   0.78248
C          C       0.05281   0.29525   0.71752
C          C       0.55281   0.20475   0.71752
C          C       0.44719   0.20475   0.78248
C          C       0.05281   0.70475   0.71752
C          C       0.94719   0.70475   0.78248
C          C       0.43784   0.72872   0.70543
C          C       0.56216   0.72872   0.79457
C          C       0.93784   0.22872   0.70543
C          C       0.06216   0.22872   0.79457
C          C       0.56216   0.27128   0.79457
C          C       0.43784   0.27128   0.70543
C          C       0.06216   0.77128   0.79457
C          C       0.93784   0.77128   0.70543
C          C       0.39160   0.68128   0.75067
C          C       0.60840   0.68128   0.74933
C          C       0.89160   0.18128   0.75067
C          C       0.10840   0.18128   0.74933
C          C       0.60840   0.31872   0.74933
C          C       0.39160   0.31872   0.75067
C          C       0.10840   0.81872   0.74933
C          C       0.89160   0.81872   0.75067
C          C       0.45357   0.96022   0.70759
C          C       0.54643   0.96022   0.79241
C          C       0.95357   0.46022   0.70759
C          C       0.04643   0.46022   0.79241
C          C       0.54643   0.03978   0.79241
C          C       0.45357   0.03978   0.70759
C          C       0.04643   0.53978   0.79241
C          C       0.95357   0.53978   0.70759
H          H       0.19751   0.62207   0.77703
H          H       0.80249   0.62207   0.72297
H          H       0.69751   0.12207   0.77703
H          H       0.30249   0.12207   0.72297
H          H       0.80249   0.37793   0.72297
H          H       0.19751   0.37793   0.77703
H          H       0.30249   0.87793   0.72297
H          H       0.69751   0.87793   0.77703
H          H       0.26966   0.69347   0.60799
H          H       0.73034   0.69347   0.89200
H          H       0.76966   0.19347   0.60799
H          H       0.23034   0.19347   0.89200
H          H       0.73034   0.30653   0.89200
H          H       0.26966   0.30653   0.60799
H          H       0.23034   0.80653   0.89200
H          H       0.76966   0.80653   0.60799
H          H       0.33177   0.78452   0.53889
H          H       0.66823   0.78452   0.96111
H          H       0.83177   0.28452   0.53889
H          H       0.16823   0.28452   0.96111
H          H       0.66823   0.21548   0.96111
H          H       0.33177   0.21548   0.53889
H          H       0.16823   0.71548   0.96111
H          H       0.83177   0.71548   0.53889
H          H       0.41319   0.86765   0.95864
H          H       0.58681   0.86765   0.54136
H          H       0.91319   0.36765   0.95864
H          H       0.08681   0.36765   0.54136
H          H       0.58681   0.13235   0.54136
H          H       0.41319   0.13235   0.95864
H          H       0.08681   0.63235   0.54136
H          H       0.91319   0.63235   0.95864
H          H       0.46774   0.71232   0.61342
H          H       0.53226   0.71232   0.88658
H          H       0.96774   0.21232   0.61342
H          H       0.03226   0.21232   0.88658
H          H       0.53226   0.28768   0.88658
H          H       0.46774   0.28768   0.61342
H          H       0.03226   0.78768   0.88658
H          H       0.96774   0.78768   0.61342
H          H       0.38656   0.62804   0.69491
H          H       0.61344   0.62804   0.80509
H          H       0.88656   0.12804   0.69491
H          H       0.11344   0.12804   0.80509
H          H       0.61344   0.37196   0.80509
H          H       0.38656   0.37196   0.69491
H          H       0.11344   0.87196   0.80509
H          H       0.88656   0.87196   0.69491
H          H       0.41742   0.93005   0.67462
H          H       0.58258   0.93005   0.82539
H          H       0.91742   0.43005   0.67462
H          H       0.08258   0.43005   0.82539
H          H       0.58258   0.06995   0.82539
H          H       0.41742   0.06995   0.67462
H          H       0.08258   0.56995   0.82539
H          H       0.91742   0.56995   0.67462
N          N       0.50000   0.83725   0.75000
N          N       0.00000   0.33725   0.75000
N          N       0.50000   0.16275   0.75000
N          N       0.00000   0.66275   0.75000
C          C       0.50000   0.91951   0.75000
C          C       0.00000   0.41951   0.75000
C          C       0.50000   0.08049   0.75000
C          C       0.00000   0.58049   0.75000
C          C       0.27129   0.50000   0.53985
C          C       0.72871   0.50000   0.96015
C          C       0.77129   0.00000   0.53985
C          C       0.22871   0.00000   0.96015
C          C       0.19216   0.50000   0.78723
C          C       0.80784   0.50000   0.71277
C          C       0.69216   0.00000   0.78723
C          C       0.30784   0.00000   0.71277
H          H       0.16343   0.50000   0.88709
H          H       0.83657   0.50000   0.61291
H          H       0.66343   0.00000   0.88709
H          H       0.33657   0.00000   0.61291
H          H       0.30309   0.50000   0.94571
H          H       0.69691   0.50000   0.55429
H          H       0.80309   0.00000   0.94571
H          H       0.19691   0.00000   0.55429
