data_crystal

_cell_length_a    36.64930
_cell_length_b    15.75840
_cell_length_c    9.61920
_cell_angle_alpha 93.07750
_cell_angle_beta  90.00880
_cell_angle_gamma 93.17960

_space_group_name_Hall 'P 1'
_space_group_name_H-M_alt 'P 1'

loop_
_symmetry_equiv_pos_as_xyz
 'x,y,z'

loop_
_atom_site_label
_atom_site_type_symbol
_atom_site_fract_x
_atom_site_fract_y
_atom_site_fract_z
C          C       0.09123   0.91374   0.10862
C          C       0.90877   0.08626   0.39138
C          C       0.07368   0.83607   0.15190
C          C       0.92632   0.16393   0.34810
C          C       0.09274   0.75675   0.16950
C          C       0.90726   0.24325   0.33050
C          C       0.12952   0.75301   0.14323
C          C       0.87048   0.24699   0.35677
C          C       0.14677   0.82933   0.09233
C          C       0.85323   0.17067   0.40767
C          C       0.12778   0.90880   0.07569
C          C       0.87222   0.09120   0.42431
C          C       0.17971   0.49663   0.21855
C          C       0.82029   0.50337   0.28145
C          C       0.19708   0.41483   0.24047
C          C       0.80292   0.58517   0.25953
C          C       0.23454   0.41246   0.25043
C          C       0.76546   0.58754   0.24957
C          C       0.25487   0.49000   0.23406
C          C       0.74513   0.51000   0.26594
C          C       0.23727   0.57125   0.21430
C          C       0.76273   0.42875   0.28570
C          C       0.19976   0.57545   0.20686
C          C       0.80024   0.42455   0.29314
C          C       0.18261   0.66279   0.18366
C          C       0.81739   0.33721   0.31634
C          C       0.29431   0.48638   0.22391
C          C       0.70569   0.51362   0.27609
C          C       0.17722   0.33010   0.24435
C          C       0.82278   0.66990   0.25565
N          N       0.14817   0.67066   0.16738
N          N       0.85183   0.32934   0.33262
C          C       0.08949   0.08054   0.12686
C          C       0.91051   0.91946   0.37314
C          C       0.11361   0.08775   0.23581
C          C       0.88639   0.91225   0.26419
C          C       0.13188   0.16753   0.25996
C          C       0.86812   0.83247   0.24004
C          C       0.12587   0.24190   0.17617
C          C       0.87413   0.75810   0.32383
C          C       0.10063   0.23591   0.07176
C          C       0.89937   0.76409   0.42824
C          C       0.08281   0.15588   0.04631
C          C       0.91719   0.84412   0.45369
N          N       0.14552   0.32341   0.19071
N          N       0.85448   0.67659   0.30929
N          N       0.31178   0.41257   0.24277
N          N       0.68822   0.58743   0.25723
H          H       0.04529   0.83712   0.17383
H          H       0.95471   0.16288   0.32617
H          H       0.07909   0.69798   0.20586
H          H       0.92091   0.30202   0.29414
H          H       0.17468   0.82787   0.06373
H          H       0.82532   0.17213   0.43627
H          H       0.14159   0.96664   0.03666
H          H       0.85841   0.03336   0.46334
H          H       0.19968   0.72088   0.18344
H          H       0.80032   0.27912   0.31656
H          H       0.30842   0.54610   0.19343
H          H       0.69158   0.45390   0.30657
H          H       0.19134   0.27137   0.27864
H          H       0.80866   0.72863   0.22136
H          H       0.11822   0.03124   0.30163
H          H       0.88178   0.96876   0.19837
H          H       0.15021   0.17110   0.34487
H          H       0.84979   0.82890   0.15513
H          H       0.09597   0.29278   0.00669
H          H       0.90403   0.70722   0.49331
H          H       0.06449   0.15181   0.46125
H          H       0.93551   0.84819   0.03875
H          H       0.15080   0.49881   0.20991
H          H       0.84920   0.50119   0.29009
H          H       0.24805   0.34935   0.26387
H          H       0.75195   0.65065   0.23613
H          H       0.25293   0.63130   0.20125
H          H       0.74707   0.36870   0.29875
C          C       0.65079   0.59801   0.28617
C          C       0.34921   0.40199   0.21383
C          C       0.63480   0.55377   0.39611
C          C       0.36520   0.44623   0.10389
C          C       0.59884   0.56826   0.42749
C          C       0.40116   0.43174   0.07251
C          C       0.57787   0.62686   0.34958
C          C       0.42213   0.37314   0.15042
C          C       0.59394   0.67107   0.23937
C          C       0.40606   0.32893   0.26063
C          C       0.63037   0.65803   0.20991
C          C       0.36963   0.34197   0.29009
N          N       0.54048   0.64024   0.38284
N          N       0.45952   0.35976   0.11716
C          C       0.52293   0.72528   0.36735
C          C       0.47707   0.27472   0.13265
C          C       0.52065   0.56851   0.44349
C          C       0.47935   0.43149   0.05651
C          C       0.45841   0.19517   0.11045
C          C       0.54159   0.80483   0.38955
C          C       0.47641   0.11377   0.11632
C          C       0.52359   0.88623   0.38367
C          C       0.51334   0.11094   0.14077
C          C       0.48666   0.88906   0.35923
C          C       0.53205   0.18966   0.16339
C          C       0.46795   0.81034   0.33661
C          C       0.51411   0.27090   0.15946
C          C       0.48589   0.72910   0.34054
C          C       0.52132   0.48355   0.38571
C          C       0.47868   0.51645   0.11429
C          C       0.50029   0.41593   0.44098
C          C       0.49971   0.58407   0.05902
N          N       0.46813   0.97183   0.35755
N          N       0.53187   0.02817   0.14245
H          H       0.65043   0.51053   0.46094
H          H       0.34957   0.48947   0.03906
H          H       0.58746   0.53494   0.01485
H          H       0.41254   0.46506   0.48515
H          H       0.57822   0.71532   0.17634
H          H       0.42178   0.28468   0.32366
H          H       0.64264   0.69328   0.12604
H          H       0.35736   0.30672   0.37396
H          H       0.43018   0.19611   0.08571
H          H       0.56982   0.80389   0.41429
H          H       0.46176   0.05265   0.10079
H          H       0.53824   0.94735   0.39921
H          H       0.56054   0.18770   0.18297
H          H       0.43946   0.81230   0.31703
H          H       0.52928   0.33122   0.17495
H          H       0.47072   0.66878   0.32505
H          H       0.53738   0.47073   0.29625
H          H       0.46262   0.52927   0.20375
H          H       0.49990   0.35057   0.39584
H          H       0.50010   0.64943   0.10416
H          H       0.44059   0.97504   0.34035
H          H       0.55941   0.02496   0.15965
H          H       0.48231   0.03109   0.36940
H          H       0.51769   0.96891   0.13060
N          N       0.07195   0.99703   0.09722
N          N       0.92805   0.00297   0.40278
C          C       0.03543   0.99781   0.04928
C          C       0.96457   0.00219   0.45072
C          C       0.00977   0.05281   0.11084
C          C       0.99023   0.94719   0.38916
C          C       0.97459   0.05454   0.06205
C          C       0.02541   0.94546   0.43796
H          H       0.01701   0.09320   0.19767
H          H       0.98299   0.90680   0.30233
H          H       0.95468   0.09565   0.11074
H          H       0.04532   0.90435   0.38926
C          C       0.09123   0.91374   0.60862
C          C       0.90877   0.08626   0.89138
C          C       0.07368   0.83607   0.65190
C          C       0.92632   0.16393   0.84810
C          C       0.09274   0.75675   0.66950
C          C       0.90726   0.24325   0.83050
C          C       0.12952   0.75301   0.64323
C          C       0.87048   0.24699   0.85677
C          C       0.14677   0.82933   0.59233
C          C       0.85323   0.17067   0.90767
C          C       0.12778   0.90880   0.57569
C          C       0.87222   0.09120   0.92431
C          C       0.17971   0.49663   0.71855
C          C       0.82029   0.50337   0.78145
C          C       0.19708   0.41483   0.74047
C          C       0.80292   0.58517   0.75953
C          C       0.23454   0.41246   0.75043
C          C       0.76546   0.58754   0.74957
C          C       0.25487   0.49000   0.73406
C          C       0.74513   0.51000   0.76594
C          C       0.23727   0.57125   0.71430
C          C       0.76273   0.42875   0.78570
C          C       0.19976   0.57545   0.70686
C          C       0.80024   0.42455   0.79314
C          C       0.18261   0.66279   0.68366
C          C       0.81739   0.33721   0.81634
C          C       0.29431   0.48638   0.72391
C          C       0.70569   0.51362   0.77609
C          C       0.17722   0.33010   0.74435
C          C       0.82278   0.66990   0.75565
N          N       0.14817   0.67066   0.66738
N          N       0.85183   0.32934   0.83262
C          C       0.08949   0.08054   0.62686
C          C       0.91051   0.91946   0.87314
C          C       0.11361   0.08775   0.73581
C          C       0.88639   0.91225   0.76419
C          C       0.13188   0.16753   0.75996
C          C       0.86812   0.83247   0.74004
C          C       0.12587   0.24190   0.67617
C          C       0.87413   0.75810   0.82383
C          C       0.10063   0.23591   0.57176
C          C       0.89937   0.76409   0.92824
C          C       0.08281   0.15588   0.54631
C          C       0.91719   0.84412   0.95369
N          N       0.14552   0.32341   0.69071
N          N       0.85448   0.67659   0.80929
N          N       0.31178   0.41257   0.74277
N          N       0.68822   0.58743   0.75723
H          H       0.04529   0.83712   0.67383
H          H       0.95471   0.16288   0.82617
H          H       0.07909   0.69798   0.70586
H          H       0.92091   0.30202   0.79414
H          H       0.17468   0.82787   0.56373
H          H       0.82532   0.17213   0.93627
H          H       0.14159   0.96664   0.53666
H          H       0.85841   0.03336   0.96334
H          H       0.19968   0.72088   0.68344
H          H       0.80032   0.27912   0.81656
H          H       0.30842   0.54610   0.69343
H          H       0.69158   0.45390   0.80657
H          H       0.19134   0.27137   0.77864
H          H       0.80866   0.72863   0.72136
H          H       0.11822   0.03124   0.80163
H          H       0.88178   0.96876   0.69837
H          H       0.15021   0.17110   0.84487
H          H       0.84979   0.82890   0.65513
H          H       0.09597   0.29278   0.50669
H          H       0.90403   0.70722   0.99331
H          H       0.06449   0.15181   0.96125
H          H       0.93551   0.84819   0.53875
H          H       0.15080   0.49881   0.70991
H          H       0.84920   0.50119   0.79009
H          H       0.24805   0.34935   0.76387
H          H       0.75195   0.65065   0.73613
H          H       0.25293   0.63130   0.70125
H          H       0.74707   0.36870   0.79875
C          C       0.65079   0.59801   0.78617
C          C       0.34921   0.40199   0.71383
C          C       0.63480   0.55377   0.89611
C          C       0.36520   0.44623   0.60389
C          C       0.59884   0.56826   0.92749
C          C       0.40116   0.43174   0.57251
C          C       0.57787   0.62686   0.84959
C          C       0.42213   0.37314   0.65041
C          C       0.59394   0.67107   0.73937
C          C       0.40606   0.32893   0.76063
C          C       0.63037   0.65803   0.70991
C          C       0.36963   0.34197   0.79009
N          N       0.54048   0.64024   0.88284
N          N       0.45952   0.35976   0.61716
C          C       0.52293   0.72528   0.86735
C          C       0.47707   0.27472   0.63265
C          C       0.52065   0.56851   0.94349
C          C       0.47935   0.43149   0.55651
C          C       0.45841   0.19517   0.61045
C          C       0.54159   0.80483   0.88955
C          C       0.47641   0.11377   0.61633
C          C       0.52359   0.88623   0.88367
C          C       0.51334   0.11094   0.64077
C          C       0.48666   0.88906   0.85923
C          C       0.53205   0.18966   0.66339
C          C       0.46795   0.81034   0.83661
C          C       0.51411   0.27090   0.65946
C          C       0.48589   0.72910   0.84054
C          C       0.52132   0.48355   0.88571
C          C       0.47868   0.51645   0.61429
C          C       0.50029   0.41593   0.94098
C          C       0.49971   0.58407   0.55902
N          N       0.46813   0.97183   0.85755
N          N       0.53187   0.02817   0.64245
H          H       0.65043   0.51053   0.96094
H          H       0.34957   0.48947   0.53906
H          H       0.58746   0.53494   0.51485
H          H       0.41254   0.46506   0.98515
H          H       0.57822   0.71532   0.67634
H          H       0.42178   0.28468   0.82366
H          H       0.64264   0.69328   0.62604
H          H       0.35736   0.30672   0.87396
H          H       0.43018   0.19611   0.58571
H          H       0.56982   0.80389   0.91429
H          H       0.46176   0.05265   0.60079
H          H       0.53824   0.94735   0.89920
H          H       0.56054   0.18770   0.68297
H          H       0.43946   0.81230   0.81703
H          H       0.52928   0.33122   0.67495
H          H       0.47072   0.66878   0.82505
H          H       0.53738   0.47073   0.79625
H          H       0.46262   0.52927   0.70375
H          H       0.49990   0.35057   0.89584
H          H       0.50010   0.64943   0.60416
H          H       0.44059   0.97504   0.84035
H          H       0.55941   0.02496   0.65965
H          H       0.48231   0.03109   0.86940
H          H       0.51769   0.96891   0.63060
N          N       0.07195   0.99703   0.59722
N          N       0.92805   0.00297   0.90278
C          C       0.03543   0.99781   0.54928
C          C       0.96457   0.00219   0.95072
C          C       0.00977   0.05281   0.61084
C          C       0.99023   0.94719   0.88916
C          C       0.97459   0.05454   0.56205
C          C       0.02541   0.94546   0.93795
H          H       0.01701   0.09320   0.69767
H          H       0.98299   0.90680   0.80233
H          H       0.95468   0.09565   0.61074
H          H       0.04532   0.90435   0.88926
