data_crystal

_cell_length_a    16.68790
_cell_length_b    9.57580
_cell_length_c    14.93280
_cell_angle_alpha 93.48260
_cell_angle_beta  90.00000
_cell_angle_gamma 90.00000

_space_group_name_Hall 'P 1'
_space_group_name_H-M_alt 'P 1'

loop_
_symmetry_equiv_pos_as_xyz
 'x,y,z'

loop_
_atom_site_label
_atom_site_type_symbol
_atom_site_fract_x
_atom_site_fract_y
_atom_site_fract_z
N          N       0.71397   0.16334   0.11916
N          N       0.71397   0.83666   0.38084
C          C       0.75914   0.21128   0.18549
C          C       0.75914   0.78872   0.31451
C          C       0.84235   0.83605   0.31352
C          C       0.84235   0.16395   0.18648
C          C       0.89682   0.74648   0.26240
C          C       0.89682   0.25352   0.23760
C          C       0.97768   0.77040   0.27436
C          C       0.97768   0.22960   0.22564
C          C       0.00515   0.88531   0.33700
C          C       0.00515   0.11469   0.16300
C          C       0.95060   0.98291   0.38233
C          C       0.95060   0.01709   0.11767
C          C       0.86976   0.95789   0.37123
C          C       0.86976   0.04211   0.12877
C          C       0.08826   0.10936   0.13431
C          C       0.08826   0.89064   0.36569
N          N       0.13751   0.78675   0.33513
N          N       0.13751   0.21325   0.16487
C          C       0.63846   0.77648   0.40155
C          C       0.63846   0.22352   0.09845
C          C       0.61108   0.80595   0.48878
C          C       0.61108   0.19405   0.01122
C          C       0.54683   0.72718   0.01859
C          C       0.54683   0.27282   0.48141
C          C       0.50953   0.61622   0.46137
C          C       0.50953   0.38378   0.03864
C          C       0.53336   0.59320   0.37234
C          C       0.53336   0.40680   0.12766
C          C       0.59661   0.67458   0.34194
C          C       0.59661   0.32542   0.15806
C          C       0.33626   0.38753   0.04307
C          C       0.33626   0.61247   0.45693
C          C       0.28386   0.70585   0.00839
C          C       0.28386   0.29415   0.49161
C          C       0.22186   0.77629   0.46799
C          C       0.22186   0.22371   0.03200
C          C       0.21144   0.75460   0.37529
C          C       0.21144   0.24540   0.12470
C          C       0.26737   0.67088   0.32374
C          C       0.26737   0.32912   0.17626
C          C       0.32953   0.60024   0.36423
C          C       0.32953   0.39976   0.13577
H          H       0.74127   0.30414   0.23256
H          H       0.74127   0.69586   0.26744
H          H       0.87698   0.65224   0.21726
H          H       0.87698   0.34776   0.28274
H          H       0.97052   0.07365   0.42993
H          H       0.97052   0.92635   0.07007
H          H       0.82856   0.02924   0.41056
H          H       0.82856   0.97076   0.08944
H          H       0.10434   0.02969   0.07897
H          H       0.10434   0.97031   0.42103
H          H       0.64382   0.88152   0.03558
H          H       0.64382   0.11848   0.46442
H          H       0.53041   0.74356   0.08811
H          H       0.53041   0.25644   0.41190
H          H       0.50684   0.50431   0.32850
H          H       0.50684   0.49569   0.17150
H          H       0.61477   0.65153   0.27355
H          H       0.61477   0.34847   0.22645
H          H       0.28704   0.71362   0.08026
H          H       0.28704   0.28638   0.41974
H          H       0.17820   0.83467   0.01006
H          H       0.17820   0.16533   0.48994
H          H       0.25884   0.65146   0.25265
H          H       0.25884   0.34854   0.24735
H          H       0.36796   0.52470   0.32446
H          H       0.36796   0.47530   0.17554
H          H       0.01884   0.69424   0.23840
H          H       0.01884   0.30576   0.26160
C          C       0.46243   0.50000   0.00000
C          C       0.38302   0.50000   0.00000
N          N       0.71397   0.16334   0.61916
N          N       0.71397   0.83666   0.88084
C          C       0.75914   0.21128   0.68550
C          C       0.75914   0.78872   0.81450
C          C       0.84235   0.83605   0.81352
C          C       0.84235   0.16395   0.68647
C          C       0.89682   0.74648   0.76240
C          C       0.89682   0.25352   0.73760
C          C       0.97768   0.77040   0.77436
C          C       0.97768   0.22960   0.72564
C          C       0.00515   0.88531   0.83700
C          C       0.00515   0.11469   0.66300
C          C       0.95060   0.98291   0.88233
C          C       0.95060   0.01709   0.61767
C          C       0.86976   0.95789   0.87123
C          C       0.86976   0.04211   0.62877
C          C       0.08826   0.10936   0.63432
C          C       0.08826   0.89064   0.86568
N          N       0.13751   0.78675   0.83513
N          N       0.13751   0.21325   0.66488
C          C       0.63846   0.77648   0.90155
C          C       0.63846   0.22352   0.59845
C          C       0.61108   0.80595   0.98878
C          C       0.61108   0.19405   0.51122
C          C       0.54683   0.72718   0.51859
C          C       0.54683   0.27282   0.98141
C          C       0.50953   0.61622   0.96137
C          C       0.50953   0.38378   0.53863
C          C       0.53336   0.59320   0.87234
C          C       0.53336   0.40680   0.62767
C          C       0.59661   0.67458   0.84194
C          C       0.59661   0.32542   0.65806
C          C       0.33626   0.38753   0.54307
C          C       0.33626   0.61247   0.95693
C          C       0.28386   0.70585   0.50840
C          C       0.28386   0.29415   0.99160
C          C       0.22186   0.77629   0.96799
C          C       0.22186   0.22371   0.53200
C          C       0.21144   0.75460   0.87530
C          C       0.21144   0.24540   0.62470
C          C       0.26737   0.67088   0.82374
C          C       0.26737   0.32912   0.67626
C          C       0.32953   0.60024   0.86423
C          C       0.32953   0.39976   0.63577
H          H       0.74127   0.30414   0.73256
H          H       0.74127   0.69586   0.76744
H          H       0.87698   0.65224   0.71727
H          H       0.87698   0.34776   0.78274
H          H       0.97052   0.07365   0.92992
H          H       0.97052   0.92635   0.57007
H          H       0.82856   0.02924   0.91056
H          H       0.82856   0.97076   0.58944
H          H       0.10434   0.02969   0.57897
H          H       0.10434   0.97031   0.92103
H          H       0.64382   0.88152   0.53558
H          H       0.64382   0.11848   0.96442
H          H       0.53041   0.74356   0.58810
H          H       0.53041   0.25644   0.91190
H          H       0.50684   0.50431   0.82850
H          H       0.50684   0.49569   0.67150
H          H       0.61477   0.65153   0.77355
H          H       0.61477   0.34847   0.72645
H          H       0.28704   0.71362   0.58026
H          H       0.28704   0.28638   0.91974
H          H       0.17820   0.83467   0.51006
H          H       0.17820   0.16533   0.98994
H          H       0.25884   0.65146   0.75265
H          H       0.25884   0.34854   0.74735
H          H       0.36796   0.52470   0.82446
H          H       0.36796   0.47530   0.67554
H          H       0.01884   0.69424   0.73840
H          H       0.01884   0.30576   0.76160
C          C       0.46243   0.50000   0.50000
C          C       0.38302   0.50000   0.50000
