data_crystal

_cell_length_a    29.46000
_cell_length_b    32.50000
_cell_length_c    7.06000
_cell_angle_alpha 90.00000
_cell_angle_beta  90.00000
_cell_angle_gamma 120.00000

_space_group_name_Hall 'P 1'
_space_group_name_H-M_alt 'P 1'

loop_
_symmetry_equiv_pos_as_xyz
 'x,y,z'

loop_
_atom_site_label
_atom_site_type_symbol
_atom_site_fract_x
_atom_site_fract_y
_atom_site_fract_z
C          C       0.01412   0.55123   0.25000
C          C       0.03841   0.48590   0.25000
C          C       0.46297   0.01324   0.25000
C          C       0.55188   0.03701   0.25000
C          C       0.35345   0.72125   0.25000
C          C       0.64655   0.27875   0.25000
C          C       0.30202   0.68544   0.25000
C          C       0.69798   0.31456   0.25000
C          C       0.28683   0.63533   0.25000
C          C       0.71317   0.36467   0.25000
C          C       0.32335   0.62097   0.25000
C          C       0.67665   0.37903   0.25000
C          C       0.37504   0.65613   0.25000
C          C       0.62496   0.34387   0.25000
C          C       0.39032   0.70644   0.25000
C          C       0.60968   0.29356   0.25000
C          C       0.36627   0.77317   0.25000
C          C       0.63373   0.22683   0.25000
N          N       0.41261   0.80898   0.25000
N          N       0.58739   0.19102   0.25000
C          C       0.41323   0.64056   0.25000
C          C       0.58677   0.35944   0.25000
N          N       0.40031   0.59458   0.25000
N          N       0.59969   0.40542   0.25000
N          N       0.43766   0.58107   0.25000
N          N       0.56234   0.41893   0.25000
C          C       0.42453   0.53056   0.25000
C          C       0.57547   0.46944   0.25000
C          C       0.46422   0.51629   0.25000
C          C       0.53578   0.48371   0.25000
O          O       0.37987   0.49871   0.25000
O          O       0.62013   0.50129   0.25000
C          C       0.44865   0.46607   0.25000
C          C       0.55135   0.53393   0.25000
C          C       0.48341   0.44897   0.25000
C          C       0.51659   0.55103   0.25000
C          C       0.76680   0.40283   0.25000
C          C       0.23320   0.59717   0.25000
N          N       0.80255   0.39204   0.25000
N          N       0.19745   0.60796   0.25000
O          O       0.55899   0.25936   0.25000
O          O       0.44101   0.74064   0.25000
O          O       0.53297   0.60167   0.25000
O          O       0.46703   0.39833   0.25000
C          C       0.58641   0.63413   0.25000
C          C       0.41359   0.36587   0.25000
N          N       0.42322   0.85780   0.25000
N          N       0.57678   0.14220   0.25000
C          C       0.47434   0.89766   0.25000
C          C       0.52566   0.10234   0.25000
C          C       0.48601   0.94962   0.25000
C          C       0.51399   0.05038   0.25000
O          O       0.50896   0.88867   0.25000
O          O       0.49104   0.11133   0.25000
C          C       0.53703   0.98676   0.25000
C          C       0.44812   0.96299   0.25000
O          O       0.39664   0.92618   0.25000
O          O       0.60336   0.07382   0.25000
C          C       0.63908   0.05712   0.25000
C          C       0.36092   0.94288   0.25000
N          N       0.85317   0.42991   0.25000
N          N       0.14683   0.57009   0.25000
C          C       0.89393   0.41978   0.25000
C          C       0.10607   0.58022   0.25000
C          C       0.94728   0.46039   0.25000
C          C       0.05272   0.53961   0.25000
O          O       0.88452   0.37714   0.25000
O          O       0.11548   0.62286   0.25000
C          C       0.98588   0.44877   0.25000
C          C       0.96159   0.51410   0.25000
O          O       0.92209   0.52570   0.25000
O          O       0.07791   0.47430   0.25000
C          C       0.05858   0.42324   0.25000
C          C       0.94142   0.57676   0.25000
H          H       0.77628   0.43980   0.25000
H          H       0.22372   0.56020   0.25000
H          H       0.72863   0.30513   0.25000
H          H       0.36186   0.56914   0.25000
H          H       0.54537   0.33252   0.25000
H          H       0.63814   0.43086   0.25000
H          H       0.52399   0.39323   0.25000
H          H       0.59311   0.55980   0.25000
H          H       0.39233   0.86348   0.25000
H          H       0.36700   0.96438   0.12406
H          H       0.32107   0.91282   0.25000
H          H       0.36700   0.96438   0.37594
H          H       0.56832   0.97815   0.25000
H          H       0.13951   0.53607   0.25000
H          H       0.86049   0.46392   0.25000
H          H       0.43168   0.02185   0.25000
H          H       0.63300   0.03562   0.12406
H          H       0.67893   0.08718   0.25000
H          H       0.63300   0.03562   0.37594
H          H       0.97630   0.41177   0.25000
H          H       0.02370   0.58823   0.25000
H          H       0.03484   0.40730   0.12406
H          H       0.09165   0.41705   0.25000
H          H       0.03484   0.40730   0.37594
H          H       0.96516   0.59270   0.12406
H          H       0.90834   0.58295   0.25000
H          H       0.96516   0.59270   0.37594
H          H       0.27137   0.69487   0.25000
H          H       0.31193   0.58351   0.25000
H          H       0.68807   0.41649   0.25000
H          H       0.33361   0.77994   0.25000
H          H       0.66639   0.22006   0.25000
H          H       0.45463   0.66748   0.25000
H          H       0.47601   0.60677   0.25000
H          H       0.40689   0.44021   0.25000
H          H       0.60425   0.62887   0.12406
H          H       0.59262   0.67009   0.25000
H          H       0.60425   0.62887   0.37594
H          H       0.39575   0.37113   0.12406
H          H       0.40738   0.32991   0.25000
H          H       0.39575   0.37113   0.37594
H          H       0.60767   0.13652   0.25000
C          C       0.01412   0.55123   0.75000
C          C       0.03841   0.48590   0.75000
C          C       0.46297   0.01324   0.75000
C          C       0.55188   0.03701   0.75000
C          C       0.35345   0.72125   0.75000
C          C       0.64655   0.27875   0.75000
C          C       0.30202   0.68544   0.75000
C          C       0.69798   0.31456   0.75000
C          C       0.28683   0.63533   0.75000
C          C       0.71317   0.36467   0.75000
C          C       0.32335   0.62097   0.75000
C          C       0.67665   0.37903   0.75000
C          C       0.37504   0.65613   0.75000
C          C       0.62496   0.34387   0.75000
C          C       0.39032   0.70644   0.75000
C          C       0.60968   0.29356   0.75000
C          C       0.36627   0.77317   0.75000
C          C       0.63373   0.22683   0.75000
N          N       0.41261   0.80898   0.75000
N          N       0.58739   0.19102   0.75000
C          C       0.41323   0.64056   0.75000
C          C       0.58677   0.35944   0.75000
N          N       0.40031   0.59458   0.75000
N          N       0.59969   0.40542   0.75000
N          N       0.43766   0.58107   0.75000
N          N       0.56234   0.41893   0.75000
C          C       0.42453   0.53056   0.75000
C          C       0.57547   0.46944   0.75000
C          C       0.46422   0.51629   0.75000
C          C       0.53578   0.48371   0.75000
O          O       0.37987   0.49871   0.75000
O          O       0.62013   0.50129   0.75000
C          C       0.44865   0.46607   0.75000
C          C       0.55135   0.53393   0.75000
C          C       0.48341   0.44897   0.75000
C          C       0.51659   0.55103   0.75000
C          C       0.76680   0.40283   0.75000
C          C       0.23320   0.59717   0.75000
N          N       0.80255   0.39204   0.75000
N          N       0.19745   0.60796   0.75000
O          O       0.55899   0.25936   0.75000
O          O       0.44101   0.74064   0.75000
O          O       0.53297   0.60167   0.75000
O          O       0.46703   0.39833   0.75000
C          C       0.58641   0.63413   0.75000
C          C       0.41359   0.36587   0.75000
N          N       0.42322   0.85780   0.75000
N          N       0.57678   0.14220   0.75000
C          C       0.47434   0.89766   0.75000
C          C       0.52566   0.10234   0.75000
C          C       0.48601   0.94962   0.75000
C          C       0.51399   0.05038   0.75000
O          O       0.50896   0.88867   0.75000
O          O       0.49104   0.11133   0.75000
C          C       0.53703   0.98676   0.75000
C          C       0.44812   0.96299   0.75000
O          O       0.39664   0.92618   0.75000
O          O       0.60336   0.07382   0.75000
C          C       0.63908   0.05712   0.75000
C          C       0.36092   0.94288   0.75000
N          N       0.85317   0.42991   0.75000
N          N       0.14683   0.57009   0.75000
C          C       0.89393   0.41978   0.75000
C          C       0.10607   0.58022   0.75000
C          C       0.94728   0.46039   0.75000
C          C       0.05272   0.53961   0.75000
O          O       0.88452   0.37714   0.75000
O          O       0.11548   0.62286   0.75000
C          C       0.98588   0.44877   0.75000
C          C       0.96159   0.51410   0.75000
O          O       0.92209   0.52570   0.75000
O          O       0.07791   0.47430   0.75000
C          C       0.05858   0.42324   0.75000
C          C       0.94142   0.57676   0.75000
H          H       0.63814   0.43086   0.75000
H          H       0.27137   0.69487   0.75000
H          H       0.72863   0.30513   0.75000
H          H       0.68807   0.41649   0.75000
H          H       0.47601   0.60677   0.75000
H          H       0.52399   0.39323   0.75000
H          H       0.40689   0.44021   0.75000
H          H       0.59311   0.55980   0.75000
H          H       0.77628   0.43980   0.75000
H          H       0.22372   0.56020   0.75000
H          H       0.60425   0.62887   0.62406
H          H       0.59262   0.67009   0.75000
H          H       0.60425   0.62887   0.87594
H          H       0.39233   0.86348   0.75000
H          H       0.60767   0.13652   0.75000
H          H       0.13951   0.53607   0.75000
H          H       0.31193   0.58351   0.75000
H          H       0.33361   0.77994   0.75000
H          H       0.66639   0.22006   0.75000
H          H       0.45463   0.66748   0.75000
H          H       0.54537   0.33252   0.75000
H          H       0.36186   0.56914   0.75000
H          H       0.39575   0.37113   0.62406
H          H       0.40738   0.32991   0.75000
H          H       0.39575   0.37113   0.87594
H          H       0.56832   0.97815   0.75000
H          H       0.43168   0.02185   0.75000
H          H       0.63300   0.03562   0.62406
H          H       0.67893   0.08718   0.75000
H          H       0.63300   0.03562   0.87594
H          H       0.36700   0.96438   0.62406
H          H       0.32107   0.91282   0.75000
H          H       0.36700   0.96438   0.87594
H          H       0.86049   0.46392   0.75000
H          H       0.97630   0.41177   0.75000
H          H       0.02370   0.58823   0.75000
H          H       0.03484   0.40730   0.62406
H          H       0.09165   0.41705   0.75000
H          H       0.03484   0.40730   0.87594
H          H       0.96516   0.59270   0.62406
H          H       0.90834   0.58295   0.75000
H          H       0.96516   0.59270   0.87594
