data_crystal

_cell_length_a    28.98360
_cell_length_b    25.07110
_cell_length_c    58.90160
_cell_angle_alpha 90.00000
_cell_angle_beta  91.55810
_cell_angle_gamma 90.00000

_space_group_name_Hall 'P 1'
_space_group_name_H-M_alt 'P 1'

loop_
_symmetry_equiv_pos_as_xyz
 'x,y,z'

loop_
_atom_site_label
_atom_site_type_symbol
_atom_site_fract_x
_atom_site_fract_y
_atom_site_fract_z
N          N       0.26820   0.50580   0.34725
N          N       0.73180   0.00580   0.15275
C          C       0.26850   0.45010   0.35445
C          C       0.73150   0.95010   0.14555
C          C       0.31460   0.52210   0.34640
C          C       0.68540   0.02210   0.15360
C          C       0.34220   0.47870   0.35350
C          C       0.65780   0.97870   0.14650
C          C       0.31410   0.43450   0.35920
C          C       0.68590   0.93450   0.14080
C          C       0.39250   0.48020   0.35515
C          C       0.60750   0.98020   0.14485
C          C       0.32890   0.57420   0.33835
C          C       0.67110   0.07420   0.16165
C          C       0.32950   0.38750   0.37165
C          C       0.67050   0.88750   0.12835
C          C       0.64280   0.41350   0.29645
C          C       0.35720   0.91350   0.20355
C          C       0.61020   0.41440   0.31250
C          C       0.38980   0.91440   0.18750
C          C       0.63290   0.41300   0.33345
C          C       0.36710   0.91300   0.16655
N          N       0.67850   0.41110   0.33080
N          N       0.32150   0.91110   0.16920
C          C       0.68440   0.41150   0.30805
C          C       0.31560   0.91150   0.19195
C          C       0.61070   0.41410   0.35435
C          C       0.38930   0.91410   0.14565
C          C       0.56040   0.41990   0.35385
C          C       0.43960   0.91990   0.14615
C          C       0.53240   0.37380   0.35590
C          C       0.46760   0.87380   0.14410
C          C       0.48500   0.37990   0.35545
C          C       0.51500   0.87990   0.14455
C          C       0.46510   0.43190   0.35320
C          C       0.53490   0.93190   0.14680
C          C       0.49350   0.47810   0.35085
C          C       0.50650   0.97810   0.14915
C          C       0.54080   0.47200   0.35125
C          C       0.45920   0.97200   0.14875
N          N       0.41620   0.43570   0.35275
N          N       0.58380   0.93570   0.14725
C          C       0.74820   0.31680   0.11720
C          C       0.25180   0.81680   0.38280
C          C       0.74140   0.26010   0.11720
C          C       0.25860   0.76010   0.38280
H          H       0.40890   0.51930   0.35810
H          H       0.59110   0.01930   0.14190
H          H       0.36630   0.57740   0.33725
H          H       0.63370   0.07740   0.16275
H          H       0.31680   0.60680   0.34985
H          H       0.68320   0.10680   0.15015
H          H       0.31390   0.58130   0.32110
H          H       0.68610   0.08130   0.17890
H          H       0.33640   0.35310   0.35985
H          H       0.66360   0.85310   0.14015
H          H       0.30470   0.37500   0.38450
H          H       0.69530   0.87500   0.11550
H          H       0.36120   0.39660   0.38165
H          H       0.63880   0.89660   0.11835
H          H       0.57380   0.41610   0.30915
H          H       0.42620   0.91610   0.19085
H          H       0.54720   0.33330   0.35780
H          H       0.45280   0.83330   0.14220
H          H       0.46370   0.34390   0.35705
H          H       0.53630   0.84390   0.14295
H          H       0.47970   0.51890   0.34835
H          H       0.52030   0.01890   0.15165
H          H       0.56210   0.50790   0.34945
H          H       0.43790   0.00790   0.15055
H          H       0.77760   0.33370   0.12620
H          H       0.22240   0.83370   0.37380
H          H       0.76540   0.23380   0.12625
H          H       0.23460   0.73380   0.37375
H          H       0.63640   0.41470   0.27825
H          H       0.36360   0.91470   0.22175
F          F       0.78550   0.55310   0.10620
F          F       0.21450   0.05310   0.39380
N          N       0.18450   0.50560   0.35075
N          N       0.81550   0.00560   0.14925
C          C       0.18560   0.45050   0.35410
C          C       0.81440   0.95050   0.14590
C          C       0.14040   0.52150   0.34970
C          C       0.85960   0.02150   0.15030
C          C       0.11230   0.47600   0.35140
C          C       0.88770   0.97600   0.14860
C          C       0.14070   0.43040   0.35365
C          C       0.85930   0.93040   0.14635
C          C       0.06200   0.47640   0.34990
C          C       0.93800   0.97640   0.15010
C          C       0.12520   0.58030   0.34700
C          C       0.87480   0.08030   0.15300
C          C       0.12510   0.37200   0.35025
C          C       0.87490   0.87200   0.14975
C          C       0.81210   0.41370   0.41455
C          C       0.18790   0.91370   0.08545
C          C       0.84470   0.41490   0.39850
C          C       0.15530   0.91490   0.10150
C          C       0.82200   0.41310   0.37760
C          C       0.17800   0.91310   0.12240
N          N       0.77630   0.41090   0.38020
N          N       0.22370   0.91090   0.11980
C          C       0.77050   0.41150   0.40295
C          C       0.22950   0.91150   0.09705
C          C       0.84420   0.41420   0.35670
C          C       0.15580   0.91420   0.14330
C          C       0.89450   0.41990   0.35710
C          C       0.10550   0.91990   0.14290
C          C       0.92250   0.37360   0.35930
C          C       0.07750   0.87360   0.14070
C          C       0.96990   0.37950   0.35945
C          C       0.03010   0.87950   0.14055
C          C       0.98980   0.43150   0.35725
C          C       0.01020   0.93150   0.14275
C          C       0.96140   0.47800   0.35550
C          C       0.03860   0.97800   0.14450
C          C       0.91410   0.47210   0.35530
C          C       0.08590   0.97210   0.14470
N          N       0.03860   0.43540   0.35745
N          N       0.96140   0.93540   0.14255
C          C       0.67960   0.32830   0.09385
C          C       0.32040   0.82830   0.40615
C          C       0.67300   0.27160   0.09385
C          C       0.32700   0.77160   0.40615
H          H       0.04500   0.51120   0.34215
H          H       0.95500   0.01120   0.15785
H          H       0.08790   0.58510   0.34820
H          H       0.91210   0.08510   0.15180
H          H       0.13560   0.59610   0.33025
H          H       0.86440   0.09610   0.16975
H          H       0.14140   0.60560   0.36060
H          H       0.85860   0.10560   0.13940
H          H       0.11600   0.35370   0.36675
H          H       0.88400   0.85370   0.13325
H          H       0.15130   0.34700   0.34200
H          H       0.84870   0.84700   0.15800
H          H       0.09490   0.37050   0.33855
H          H       0.90510   0.87050   0.16145
H          H       0.88100   0.41700   0.40185
H          H       0.11900   0.91700   0.09815
H          H       0.90770   0.33310   0.36085
H          H       0.09230   0.83310   0.13915
H          H       0.99130   0.34350   0.36110
H          H       0.00870   0.84350   0.13890
H          H       0.97530   0.51900   0.35460
H          H       0.02470   0.01900   0.14540
H          H       0.89270   0.50810   0.35385
H          H       0.10730   0.00810   0.14615
H          H       0.65510   0.35430   0.08495
H          H       0.34490   0.85430   0.41505
H          H       0.64390   0.25430   0.08480
H          H       0.35610   0.75430   0.41520
H          H       0.81840   0.41490   0.43270
H          H       0.18160   0.91490   0.06730
F          F       0.70800   0.57290   0.10650
F          F       0.29200   0.07290   0.39350
N          N       0.73340   0.49600   0.08490
N          N       0.26660   0.99600   0.41510
C          C       0.72940   0.43780   0.08495
C          C       0.27060   0.93780   0.41505
C          C       0.73930   0.51130   0.06180
C          C       0.26070   0.01130   0.43820
C          C       0.73950   0.46450   0.04840
C          C       0.26050   0.96450   0.45160
C          C       0.73490   0.41860   0.06260
C          C       0.26510   0.91860   0.43740
C          C       0.74380   0.46530   0.02345
C          C       0.25620   0.96530   0.47655
C          C       0.74400   0.56600   0.05380
C          C       0.25600   0.06600   0.44620
C          C       0.74340   0.36350   0.05570
C          C       0.25660   0.86350   0.44430
C          C       0.61130   0.41300   0.39615
C          C       0.38870   0.91300   0.10385
C          C       0.64440   0.41200   0.41290
C          C       0.35560   0.91200   0.08710
C          C       0.68570   0.41070   0.40210
C          C       0.31430   0.91070   0.09790
N          N       0.67920   0.41050   0.37925
N          N       0.32080   0.91050   0.12075
C          C       0.63350   0.41210   0.37570
C          C       0.36650   0.91210   0.12430
C          C       0.72830   0.41110   0.41375
C          C       0.27170   0.91110   0.08625
C          C       0.72860   0.41470   0.43890
C          C       0.27140   0.91470   0.06110
C          C       0.72620   0.36710   0.45220
C          C       0.27380   0.86710   0.04780
C          C       0.72650   0.37110   0.47590
C          C       0.27350   0.87110   0.02410
C          C       0.72980   0.42240   0.48660
C          C       0.27020   0.92240   0.01340
C          C       0.73150   0.47020   0.47310
C          C       0.26850   0.97020   0.02690
C          C       0.73110   0.46620   0.44945
C          C       0.26890   0.96620   0.05055
N          N       0.72970   0.42440   0.01100
N          N       0.27030   0.92440   0.48900
C          C       0.24840   0.32570   0.34980
C          C       0.75160   0.82570   0.15020
C          C       0.24870   0.27040   0.35620
C          C       0.75130   0.77040   0.14380
H          H       0.75750   0.50170   0.01575
H          H       0.24250   0.00170   0.48425
H          H       0.71660   0.57510   0.04100
H          H       0.28340   0.07510   0.45900
H          H       0.77770   0.57100   0.04595
H          H       0.22230   0.07100   0.45405
H          H       0.74150   0.59630   0.06775
H          H       0.25850   0.09630   0.43225
H          H       0.71090   0.34250   0.05130
H          H       0.28910   0.84250   0.44870
H          H       0.76280   0.34060   0.06900
H          H       0.23720   0.84060   0.43100
H          H       0.76540   0.36230   0.04070
H          H       0.23460   0.86230   0.45930
H          H       0.63860   0.41270   0.43095
H          H       0.36140   0.91270   0.06905
H          H       0.72400   0.32710   0.44420
H          H       0.27600   0.82710   0.05580
H          H       0.72460   0.33410   0.48600
H          H       0.27540   0.83410   0.01400
H          H       0.73230   0.51060   0.48060
H          H       0.26770   0.01060   0.01940
H          H       0.73240   0.50320   0.43930
H          H       0.26760   0.00320   0.06070
H          H       0.26440   0.33770   0.33420
H          H       0.73560   0.83770   0.16580
H          H       0.26500   0.24040   0.34565
H          H       0.73500   0.74040   0.15435
H          H       0.57500   0.41500   0.39880
H          H       0.42500   0.91500   0.10120
F          F       0.22160   0.56890   0.32575
F          F       0.77840   0.06890   0.17425
N          N       0.73590   0.49350   0.12690
N          N       0.26410   0.99350   0.37310
C          C       0.72610   0.43900   0.12630
C          C       0.27390   0.93900   0.37370
C          C       0.73690   0.50980   0.14885
C          C       0.26310   0.00980   0.35115
C          C       0.72620   0.46610   0.16275
C          C       0.27380   0.96610   0.33725
C          C       0.71810   0.42100   0.14860
C          C       0.28190   0.92100   0.35140
C          C       0.72210   0.46840   0.18765
C          C       0.27790   0.96840   0.31235
C          C       0.74810   0.56740   0.15650
C          C       0.25190   0.06740   0.34350
C          C       0.69510   0.36900   0.15595
C          C       0.30490   0.86900   0.34405
C          C       0.84350   0.41190   0.31490
C          C       0.15650   0.91190   0.18510
C          C       0.81050   0.41080   0.29820
C          C       0.18950   0.91080   0.20180
C          C       0.76910   0.41080   0.30895
C          C       0.23090   0.91080   0.19105
N          N       0.77560   0.41130   0.33180
N          N       0.22440   0.91130   0.16820
C          C       0.82140   0.41220   0.33535
C          C       0.17860   0.91220   0.16465
C          C       0.72660   0.41140   0.29730
C          C       0.27340   0.91140   0.20270
C          C       0.72640   0.41510   0.27215
C          C       0.27360   0.91510   0.22785
C          C       0.72020   0.36810   0.25870
C          C       0.27980   0.86810   0.24130
C          C       0.72060   0.37200   0.23500
C          C       0.27940   0.87200   0.26500
C          C       0.72670   0.42290   0.22445
C          C       0.27330   0.92290   0.27555
C          C       0.73340   0.47000   0.23805
C          C       0.26660   0.97000   0.26195
C          C       0.73300   0.46600   0.26170
C          C       0.26700   0.96600   0.23830
N          N       0.72760   0.42480   0.20005
N          N       0.27240   0.92480   0.29995
C          C       0.20600   0.34820   0.38335
C          C       0.79400   0.84820   0.11665
C          C       0.20640   0.29300   0.38970
C          C       0.79360   0.79300   0.11030
H          H       0.71500   0.50750   0.19540
H          H       0.28500   0.00750   0.30460
H          H       0.75080   0.57090   0.17525
H          H       0.24920   0.07090   0.32475
H          H       0.72130   0.59600   0.15015
H          H       0.27870   0.09600   0.34985
H          H       0.78140   0.57980   0.14975
H          H       0.21860   0.07980   0.35025
H          H       0.72090   0.33770   0.16075
H          H       0.27910   0.83770   0.33925
H          H       0.67150   0.35320   0.14255
H          H       0.32850   0.85320   0.35745
H          H       0.67380   0.37690   0.17085
H          H       0.32620   0.87690   0.32915
H          H       0.81630   0.41040   0.28015
H          H       0.18370   0.91040   0.21985
H          H       0.71540   0.32850   0.26660
H          H       0.28460   0.82850   0.23340
H          H       0.71600   0.33540   0.22480
H          H       0.28400   0.83540   0.27520
H          H       0.73990   0.50980   0.23065
H          H       0.26010   0.00980   0.26935
H          H       0.73820   0.50250   0.27195
H          H       0.26180   0.00250   0.22805
H          H       0.18990   0.37790   0.39425
H          H       0.81010   0.87790   0.10575
H          H       0.19040   0.28050   0.40520
H          H       0.80960   0.78050   0.09480
H          H       0.87980   0.41240   0.31225
H          H       0.12020   0.91240   0.18775
F          F       0.23010   0.58130   0.36485
F          F       0.76990   0.08130   0.13515
B          B       0.74100   0.53020   0.10615
B          B       0.25900   0.03020   0.39385
C          C       0.72380   0.40850   0.10560
C          C       0.27620   0.90850   0.39440
C          C       0.71720   0.35150   0.10560
C          C       0.28280   0.85150   0.39440
C          C       0.70390   0.23740   0.10550
C          C       0.29610   0.73740   0.39450
B          B       0.22610   0.54180   0.34710
B          B       0.77390   0.04180   0.15290
C          C       0.22720   0.42080   0.35715
C          C       0.77280   0.92080   0.14285
C          C       0.22720   0.36520   0.36340
C          C       0.77280   0.86520   0.13660
C          C       0.22780   0.25410   0.37615
C          C       0.77220   0.75410   0.12385
Cl         Cl      0.69560   0.16630   0.10540
Cl         Cl      0.30440   0.66630   0.39460
Cl         Cl      0.22850   0.18500   0.38430
Cl         Cl      0.77150   0.68500   0.11570
N          N       0.26820   0.50580   0.84725
N          N       0.73180   0.00580   0.65275
C          C       0.26850   0.45010   0.85445
C          C       0.73150   0.95010   0.64555
C          C       0.31460   0.52210   0.84640
C          C       0.68540   0.02210   0.65360
C          C       0.34220   0.47870   0.85350
C          C       0.65780   0.97870   0.64650
C          C       0.31410   0.43450   0.85920
C          C       0.68590   0.93450   0.64080
C          C       0.39250   0.48020   0.85515
C          C       0.60750   0.98020   0.64485
C          C       0.32890   0.57420   0.83835
C          C       0.67110   0.07420   0.66165
C          C       0.32950   0.38750   0.87165
C          C       0.67050   0.88750   0.62835
C          C       0.64280   0.41350   0.79645
C          C       0.35720   0.91350   0.70355
C          C       0.61020   0.41440   0.81250
C          C       0.38980   0.91440   0.68750
C          C       0.63290   0.41300   0.83345
C          C       0.36710   0.91300   0.66655
N          N       0.67850   0.41110   0.83080
N          N       0.32150   0.91110   0.66920
C          C       0.68440   0.41150   0.80805
C          C       0.31560   0.91150   0.69195
C          C       0.61070   0.41410   0.85435
C          C       0.38930   0.91410   0.64565
C          C       0.56040   0.41990   0.85385
C          C       0.43960   0.91990   0.64615
C          C       0.53240   0.37380   0.85590
C          C       0.46760   0.87380   0.64410
C          C       0.48500   0.37990   0.85545
C          C       0.51500   0.87990   0.64455
C          C       0.46510   0.43190   0.85320
C          C       0.53490   0.93190   0.64680
C          C       0.49350   0.47810   0.85085
C          C       0.50650   0.97810   0.64915
C          C       0.54080   0.47200   0.85125
C          C       0.45920   0.97200   0.64875
N          N       0.41620   0.43570   0.85275
N          N       0.58380   0.93570   0.64725
C          C       0.74820   0.31680   0.61720
C          C       0.25180   0.81680   0.88280
C          C       0.74140   0.26010   0.61720
C          C       0.25860   0.76010   0.88280
H          H       0.40890   0.51930   0.85810
H          H       0.59110   0.01930   0.64190
H          H       0.36630   0.57740   0.83725
H          H       0.63370   0.07740   0.66275
H          H       0.31680   0.60680   0.84985
H          H       0.68320   0.10680   0.65015
H          H       0.31390   0.58130   0.82110
H          H       0.68610   0.08130   0.67890
H          H       0.33640   0.35310   0.85985
H          H       0.66360   0.85310   0.64015
H          H       0.30470   0.37500   0.88450
H          H       0.69530   0.87500   0.61550
H          H       0.36120   0.39660   0.88165
H          H       0.63880   0.89660   0.61835
H          H       0.57380   0.41610   0.80915
H          H       0.42620   0.91610   0.69085
H          H       0.54720   0.33330   0.85780
H          H       0.45280   0.83330   0.64220
H          H       0.46370   0.34390   0.85705
H          H       0.53630   0.84390   0.64295
H          H       0.47970   0.51890   0.84835
H          H       0.52030   0.01890   0.65165
H          H       0.56210   0.50790   0.84945
H          H       0.43790   0.00790   0.65055
H          H       0.77760   0.33370   0.62620
H          H       0.22240   0.83370   0.87380
H          H       0.76540   0.23380   0.62625
H          H       0.23460   0.73380   0.87375
H          H       0.63640   0.41470   0.77825
H          H       0.36360   0.91470   0.72175
F          F       0.78550   0.55310   0.60620
F          F       0.21450   0.05310   0.89380
N          N       0.18450   0.50560   0.85075
N          N       0.81550   0.00560   0.64925
C          C       0.18560   0.45050   0.85410
C          C       0.81440   0.95050   0.64590
C          C       0.14040   0.52150   0.84970
C          C       0.85960   0.02150   0.65030
C          C       0.11230   0.47600   0.85140
C          C       0.88770   0.97600   0.64860
C          C       0.14070   0.43040   0.85365
C          C       0.85930   0.93040   0.64635
C          C       0.06200   0.47640   0.84990
C          C       0.93800   0.97640   0.65010
C          C       0.12520   0.58030   0.84700
C          C       0.87480   0.08030   0.65300
C          C       0.12510   0.37200   0.85025
C          C       0.87490   0.87200   0.64975
C          C       0.81210   0.41370   0.91455
C          C       0.18790   0.91370   0.58545
C          C       0.84470   0.41490   0.89850
C          C       0.15530   0.91490   0.60150
C          C       0.82200   0.41310   0.87760
C          C       0.17800   0.91310   0.62240
N          N       0.77630   0.41090   0.88020
N          N       0.22370   0.91090   0.61980
C          C       0.77050   0.41150   0.90295
C          C       0.22950   0.91150   0.59705
C          C       0.84420   0.41420   0.85670
C          C       0.15580   0.91420   0.64330
C          C       0.89450   0.41990   0.85710
C          C       0.10550   0.91990   0.64290
C          C       0.92250   0.37360   0.85930
C          C       0.07750   0.87360   0.64070
C          C       0.96990   0.37950   0.85945
C          C       0.03010   0.87950   0.64055
C          C       0.98980   0.43150   0.85725
C          C       0.01020   0.93150   0.64275
C          C       0.96140   0.47800   0.85550
C          C       0.03860   0.97800   0.64450
C          C       0.91410   0.47210   0.85530
C          C       0.08590   0.97210   0.64470
N          N       0.03860   0.43540   0.85745
N          N       0.96140   0.93540   0.64255
C          C       0.67960   0.32830   0.59385
C          C       0.32040   0.82830   0.90615
C          C       0.67300   0.27160   0.59385
C          C       0.32700   0.77160   0.90615
H          H       0.04500   0.51120   0.84215
H          H       0.95500   0.01120   0.65785
H          H       0.08790   0.58510   0.84820
H          H       0.91210   0.08510   0.65180
H          H       0.13560   0.59610   0.83025
H          H       0.86440   0.09610   0.66975
H          H       0.14140   0.60560   0.86060
H          H       0.85860   0.10560   0.63940
H          H       0.11600   0.35370   0.86675
H          H       0.88400   0.85370   0.63325
H          H       0.15130   0.34700   0.84200
H          H       0.84870   0.84700   0.65800
H          H       0.09490   0.37050   0.83855
H          H       0.90510   0.87050   0.66145
H          H       0.88100   0.41700   0.90185
H          H       0.11900   0.91700   0.59815
H          H       0.90770   0.33310   0.86085
H          H       0.09230   0.83310   0.63915
H          H       0.99130   0.34350   0.86110
H          H       0.00870   0.84350   0.63890
H          H       0.97530   0.51900   0.85460
H          H       0.02470   0.01900   0.64540
H          H       0.89270   0.50810   0.85385
H          H       0.10730   0.00810   0.64615
H          H       0.65510   0.35430   0.58495
H          H       0.34490   0.85430   0.91505
H          H       0.64390   0.25430   0.58480
H          H       0.35610   0.75430   0.91520
H          H       0.81840   0.41490   0.93270
H          H       0.18160   0.91490   0.56730
F          F       0.70800   0.57290   0.60650
F          F       0.29200   0.07290   0.89350
N          N       0.73340   0.49600   0.58490
N          N       0.26660   0.99600   0.91510
C          C       0.72940   0.43780   0.58495
C          C       0.27060   0.93780   0.91505
C          C       0.73930   0.51130   0.56180
C          C       0.26070   0.01130   0.93820
C          C       0.73950   0.46450   0.54840
C          C       0.26050   0.96450   0.95160
C          C       0.73490   0.41860   0.56260
C          C       0.26510   0.91860   0.93740
C          C       0.74380   0.46530   0.52345
C          C       0.25620   0.96530   0.97655
C          C       0.74400   0.56600   0.55380
C          C       0.25600   0.06600   0.94620
C          C       0.74340   0.36350   0.55570
C          C       0.25660   0.86350   0.94430
C          C       0.61130   0.41300   0.89615
C          C       0.38870   0.91300   0.60385
C          C       0.64440   0.41200   0.91290
C          C       0.35560   0.91200   0.58710
C          C       0.68570   0.41070   0.90210
C          C       0.31430   0.91070   0.59790
N          N       0.67920   0.41050   0.87925
N          N       0.32080   0.91050   0.62075
C          C       0.63350   0.41210   0.87570
C          C       0.36650   0.91210   0.62430
C          C       0.72830   0.41110   0.91375
C          C       0.27170   0.91110   0.58625
C          C       0.72860   0.41470   0.93890
C          C       0.27140   0.91470   0.56110
C          C       0.72620   0.36710   0.95220
C          C       0.27380   0.86710   0.54780
C          C       0.72650   0.37110   0.97590
C          C       0.27350   0.87110   0.52410
C          C       0.72980   0.42240   0.98660
C          C       0.27020   0.92240   0.51340
C          C       0.73150   0.47020   0.97310
C          C       0.26850   0.97020   0.52690
C          C       0.73110   0.46620   0.94945
C          C       0.26890   0.96620   0.55055
N          N       0.72970   0.42440   0.51100
N          N       0.27030   0.92440   0.98900
C          C       0.24840   0.32570   0.84980
C          C       0.75160   0.82570   0.65020
C          C       0.24870   0.27040   0.85620
C          C       0.75130   0.77040   0.64380
H          H       0.75750   0.50170   0.51575
H          H       0.24250   0.00170   0.98425
H          H       0.71660   0.57510   0.54100
H          H       0.28340   0.07510   0.95900
H          H       0.77770   0.57100   0.54595
H          H       0.22230   0.07100   0.95405
H          H       0.74150   0.59630   0.56775
H          H       0.25850   0.09630   0.93225
H          H       0.71090   0.34250   0.55130
H          H       0.28910   0.84250   0.94870
H          H       0.76280   0.34060   0.56900
H          H       0.23720   0.84060   0.93100
H          H       0.76540   0.36230   0.54070
H          H       0.23460   0.86230   0.95930
H          H       0.63860   0.41270   0.93095
H          H       0.36140   0.91270   0.56905
H          H       0.72400   0.32710   0.94420
H          H       0.27600   0.82710   0.55580
H          H       0.72460   0.33410   0.98600
H          H       0.27540   0.83410   0.51400
H          H       0.73230   0.51060   0.98060
H          H       0.26770   0.01060   0.51940
H          H       0.73240   0.50320   0.93930
H          H       0.26760   0.00320   0.56070
H          H       0.26440   0.33770   0.83420
H          H       0.73560   0.83770   0.66580
H          H       0.26500   0.24040   0.84565
H          H       0.73500   0.74040   0.65435
H          H       0.57500   0.41500   0.89880
H          H       0.42500   0.91500   0.60120
F          F       0.22160   0.56890   0.82575
F          F       0.77840   0.06890   0.67425
N          N       0.73590   0.49350   0.62690
N          N       0.26410   0.99350   0.87310
C          C       0.72610   0.43900   0.62630
C          C       0.27390   0.93900   0.87370
C          C       0.73690   0.50980   0.64885
C          C       0.26310   0.00980   0.85115
C          C       0.72620   0.46610   0.66275
C          C       0.27380   0.96610   0.83725
C          C       0.71810   0.42100   0.64860
C          C       0.28190   0.92100   0.85140
C          C       0.72210   0.46840   0.68765
C          C       0.27790   0.96840   0.81235
C          C       0.74810   0.56740   0.65650
C          C       0.25190   0.06740   0.84350
C          C       0.69510   0.36900   0.65595
C          C       0.30490   0.86900   0.84405
C          C       0.84350   0.41190   0.81490
C          C       0.15650   0.91190   0.68510
C          C       0.81050   0.41080   0.79820
C          C       0.18950   0.91080   0.70180
C          C       0.76910   0.41080   0.80895
C          C       0.23090   0.91080   0.69105
N          N       0.77560   0.41130   0.83180
N          N       0.22440   0.91130   0.66820
C          C       0.82140   0.41220   0.83535
C          C       0.17860   0.91220   0.66465
C          C       0.72660   0.41140   0.79730
C          C       0.27340   0.91140   0.70270
C          C       0.72640   0.41510   0.77215
C          C       0.27360   0.91510   0.72785
C          C       0.72020   0.36810   0.75870
C          C       0.27980   0.86810   0.74130
C          C       0.72060   0.37200   0.73500
C          C       0.27940   0.87200   0.76500
C          C       0.72670   0.42290   0.72445
C          C       0.27330   0.92290   0.77555
C          C       0.73340   0.47000   0.73805
C          C       0.26660   0.97000   0.76195
C          C       0.73300   0.46600   0.76170
C          C       0.26700   0.96600   0.73830
N          N       0.72760   0.42480   0.70005
N          N       0.27240   0.92480   0.79995
C          C       0.20600   0.34820   0.88335
C          C       0.79400   0.84820   0.61665
C          C       0.20640   0.29300   0.88970
C          C       0.79360   0.79300   0.61030
H          H       0.71500   0.50750   0.69540
H          H       0.28500   0.00750   0.80460
H          H       0.75080   0.57090   0.67525
H          H       0.24920   0.07090   0.82475
H          H       0.72130   0.59600   0.65015
H          H       0.27870   0.09600   0.84985
H          H       0.78140   0.57980   0.64975
H          H       0.21860   0.07980   0.85025
H          H       0.72090   0.33770   0.66075
H          H       0.27910   0.83770   0.83925
H          H       0.67150   0.35320   0.64255
H          H       0.32850   0.85320   0.85745
H          H       0.67380   0.37690   0.67085
H          H       0.32620   0.87690   0.82915
H          H       0.81630   0.41040   0.78015
H          H       0.18370   0.91040   0.71985
H          H       0.71540   0.32850   0.76660
H          H       0.28460   0.82850   0.73340
H          H       0.71600   0.33540   0.72480
H          H       0.28400   0.83540   0.77520
H          H       0.73990   0.50980   0.73065
H          H       0.26010   0.00980   0.76935
H          H       0.73820   0.50250   0.77195
H          H       0.26180   0.00250   0.72805
H          H       0.18990   0.37790   0.89425
H          H       0.81010   0.87790   0.60575
H          H       0.19040   0.28050   0.90520
H          H       0.80960   0.78050   0.59480
H          H       0.87980   0.41240   0.81225
H          H       0.12020   0.91240   0.68775
F          F       0.23010   0.58130   0.86485
F          F       0.76990   0.08130   0.63515
B          B       0.74100   0.53020   0.60615
B          B       0.25900   0.03020   0.89385
C          C       0.72380   0.40850   0.60560
C          C       0.27620   0.90850   0.89440
C          C       0.71720   0.35150   0.60560
C          C       0.28280   0.85150   0.89440
C          C       0.70390   0.23740   0.60550
C          C       0.29610   0.73740   0.89450
B          B       0.22610   0.54180   0.84710
B          B       0.77390   0.04180   0.65290
C          C       0.22720   0.42080   0.85715
C          C       0.77280   0.92080   0.64285
C          C       0.22720   0.36520   0.86340
C          C       0.77280   0.86520   0.63660
C          C       0.22780   0.25410   0.87615
C          C       0.77220   0.75410   0.62385
Cl         Cl      0.69560   0.16630   0.60540
Cl         Cl      0.30440   0.66630   0.89460
Cl         Cl      0.22850   0.18500   0.88430
Cl         Cl      0.77150   0.68500   0.61570
