data_crystal

_cell_length_a    25.68390
_cell_length_b    26.16720
_cell_length_c    14.34520
_cell_angle_alpha 89.86120
_cell_angle_beta  89.87260
_cell_angle_gamma 109.82900

_space_group_name_Hall 'P 1'
_space_group_name_H-M_alt 'P 1'

loop_
_symmetry_equiv_pos_as_xyz
 'x,y,z'

loop_
_atom_site_label
_atom_site_type_symbol
_atom_site_fract_x
_atom_site_fract_y
_atom_site_fract_z
C          C       0.48060   0.65800   0.00275
C          C       0.53600   0.65800   0.00325
C          C       0.58110   0.70840   0.00930
C          C       0.56950   0.75810   0.01285
C          C       0.51440   0.75600   0.00895
C          C       0.46910   0.70640   0.00480
C          C       0.63660   0.70760   0.01085
C          C       0.61580   0.80990   0.01815
C          C       0.67130   0.80910   0.01890
C          C       0.68290   0.75930   0.01520
C          C       0.71650   0.85950   0.02230
C          C       0.70580   0.90940   0.02095
C          C       0.65190   0.91040   0.01935
C          C       0.60740   0.85990   0.02070
H          H       0.44690   0.61840   0.00095
H          H       0.74150   0.94740   0.01860
C          C       0.54690   0.60840   0.49630
C          C       0.60090   0.60750   0.49785
C          C       0.64510   0.65770   0.00720
H          H       0.51160   0.57050   0.48760
C          C       0.73800   0.76150   0.01315
C          C       0.77185   0.85950   0.02410
H          H       0.80560   0.89880   0.03010
C          C       0.78320   0.81110   0.01847
H          H       0.56500   0.86080   0.02335
H          H       0.50540   0.79420   0.00800
H          H       0.74735   0.72370   0.00580
H          H       0.68740   0.65660   0.01200
C          C       0.61270   0.55614   0.48884
C          C       0.66360   0.55560   0.45187
C          C       0.57350   0.50590   0.01650
C          C       0.67480   0.50740   0.44325
H          H       0.69490   0.59350   0.42675
C          C       0.58460   0.45760   0.00785
H          H       0.53380   0.50442   0.04770
C          C       0.63560   0.45739   0.47130
H          H       0.71470   0.50840   0.41315
H          H       0.55350   0.41910   0.03060
C          C       0.84070   0.81070   0.01540
C          C       0.88430   0.85570   0.48030
C          C       0.85370   0.76490   0.04550
C          C       0.93810   0.85480   0.47420
H          H       0.87610   0.89180   0.45435
C          C       0.90740   0.76390   0.03927
H          H       0.82150   0.72960   0.07638
C          C       0.95070   0.80870   0.00292
H          H       0.97100   0.89020   0.44501
H          H       0.91650   0.72780   0.06329
C          C       0.64070   0.96220   0.01281
C          C       0.59020   0.96380   0.47612
C          C       0.30111   0.70839   0.49195
H          H       0.33532   0.78890   0.05283
H          H       0.28117   0.62735   0.43283
C          C       0.62276   0.31219   0.49394
C          C       0.57582   0.26426   0.49634
C          C       0.67607   0.30750   0.49711
C          C       0.58151   0.21323   0.49900
H          H       0.53429   0.26765   0.49485
C          C       0.68173   0.25649   0.00151
H          H       0.71343   0.34402   0.49872
C          C       0.63484   0.20851   0.00116
H          H       0.54406   0.17683   0.00199
H          H       0.72327   0.25316   0.00411
C          C       0.17825   0.75157   0.01845
C          C       0.17331   0.80359   0.02684
C          C       0.12938   0.70545   0.01476
C          C       0.12166   0.80997   0.02748
H          H       0.21110   0.83947   0.03166
C          C       0.07770   0.71173   0.01716
H          H       0.13160   0.66419   0.01219
C          C       0.07288   0.76393   0.02144
H          H       0.11920   0.85094   0.03537
H          H       0.03987   0.67579   0.01401
N          N       0.61341   0.36183   0.49581
N          N       0.64401   0.15892   0.00966
N          N       0.23173   0.74886   0.02048
N          N       0.01953   0.76686   0.02608
C          C       0.60989   0.11357   0.47927
H          H       0.57115   0.11067   0.43984
C          C       0.64748   0.40655   0.46253
H          H       0.68680   0.40902   0.42500
C          C       0.24447   0.70934   0.48510
H          H       0.21395   0.67462   0.44655
C          C       0.00712   0.80728   0.49372
H          H       0.03778   0.84237   0.45564
C          C       0.48067   0.65801   0.25278
C          C       0.53606   0.65807   0.25327
C          C       0.58112   0.70840   0.25931
C          C       0.56951   0.75817   0.26288
C          C       0.51445   0.75608   0.25896
C          C       0.46912   0.70643   0.25482
C          C       0.63661   0.70765   0.26084
C          C       0.61585   0.80991   0.26815
C          C       0.67135   0.80915   0.26894
C          C       0.68293   0.75938   0.26520
C          C       0.71650   0.85953   0.27231
C          C       0.70588   0.90942   0.27099
C          C       0.65190   0.91040   0.26938
C          C       0.60749   0.85997   0.27073
H          H       0.44695   0.61849   0.25095
H          H       0.74154   0.94747   0.26863
C          C       0.54694   0.60841   0.24630
C          C       0.60096   0.60757   0.24787
C          C       0.64513   0.65771   0.25723
H          H       0.51160   0.57052   0.23761
C          C       0.73805   0.76154   0.26320
C          C       0.77185   0.85953   0.27411
H          H       0.80566   0.89882   0.28012
C          C       0.78326   0.81116   0.26848
H          H       0.56502   0.86080   0.27337
H          H       0.50544   0.79423   0.25812
H          H       0.74735   0.72374   0.25582
H          H       0.68746   0.65664   0.26203
C          C       0.61278   0.55614   0.23885
C          C       0.66367   0.55568   0.20186
C          C       0.57354   0.50591   0.26651
C          C       0.67488   0.50740   0.19329
H          H       0.53385   0.50442   0.29774
C          C       0.63565   0.45739   0.22130
H          H       0.71475   0.50848   0.16317
H          H       0.55359   0.41910   0.28063
C          C       0.84079   0.81074   0.26544
C          C       0.88439   0.85576   0.23034
C          C       0.85373   0.76497   0.29555
C          C       0.93819   0.85480   0.22422
H          H       0.87615   0.89188   0.20437
C          C       0.90744   0.76390   0.28926
H          H       0.82152   0.72962   0.32638
C          C       0.95073   0.80870   0.25292
H          H       0.97103   0.89027   0.19501
H          H       0.91650   0.72782   0.31329
C          C       0.64076   0.96229   0.26281
C          C       0.59028   0.96382   0.22612
C          C       0.68054   0.01213   0.29030
C          C       0.58036   0.01268   0.21638
H          H       0.55833   0.92643   0.20170
C          C       0.67078   0.06105   0.28033
H          H       0.71985   0.01293   0.32189
C          C       0.62050   0.06237   0.24269
H          H       0.54087   0.01236   0.18607
H          H       0.70253   0.09918   0.30247
C          C       0.41155   0.70685   0.25159
C          C       0.39827   0.75224   0.28264
C          C       0.36789   0.66206   0.21648
C          C       0.34444   0.75310   0.27776
H          H       0.43026   0.78757   0.31338
C          C       0.31396   0.66276   0.21183
H          H       0.37600   0.62612   0.18953
C          C       0.30111   0.70839   0.24194
H          H       0.33532   0.78890   0.30283
H          H       0.28117   0.62735   0.18283
C          C       0.62276   0.31219   0.24394
C          C       0.57582   0.26426   0.24634
C          C       0.67607   0.30750   0.24711
C          C       0.58151   0.21323   0.24900
H          H       0.53429   0.26765   0.24485
C          C       0.68173   0.25649   0.25150
H          H       0.71343   0.34402   0.24873
C          C       0.63484   0.20851   0.25116
H          H       0.54406   0.17683   0.25200
H          H       0.72327   0.25316   0.25411
C          C       0.17825   0.75157   0.26845
C          C       0.17331   0.80359   0.27683
C          C       0.12938   0.70545   0.26476
C          C       0.12166   0.80997   0.27748
H          H       0.21110   0.83947   0.28166
C          C       0.07770   0.71173   0.26716
H          H       0.13160   0.66419   0.26219
C          C       0.07288   0.76393   0.27144
H          H       0.11920   0.85094   0.28537
H          H       0.03987   0.67579   0.26401
N          N       0.61341   0.36183   0.24581
N          N       0.64401   0.15892   0.25966
N          N       0.23173   0.74886   0.27048
N          N       0.01953   0.76686   0.27608
C          C       0.60989   0.11357   0.22927
H          H       0.57115   0.11067   0.18984
C          C       0.64748   0.40655   0.21252
H          H       0.68680   0.40902   0.17500
C          C       0.24447   0.70934   0.23510
H          H       0.21395   0.67462   0.19655
C          C       0.00712   0.80728   0.24372
H          H       0.03778   0.84237   0.20564
C          C       0.48060   0.65800   0.50275
C          C       0.53600   0.65800   0.50325
C          C       0.58110   0.70840   0.50930
C          C       0.56950   0.75810   0.51285
C          C       0.51440   0.75600   0.50895
C          C       0.46910   0.70640   0.50480
C          C       0.63660   0.70760   0.51084
C          C       0.61580   0.80990   0.51815
C          C       0.67130   0.80910   0.51890
C          C       0.68290   0.75930   0.51520
C          C       0.71650   0.85950   0.52230
C          C       0.70580   0.90940   0.52095
C          C       0.65190   0.91040   0.51935
C          C       0.60740   0.85990   0.52070
H          H       0.44690   0.61840   0.50095
H          H       0.74150   0.94740   0.51860
C          C       0.54690   0.60840   0.99630
C          C       0.60090   0.60750   0.99785
C          C       0.64510   0.65770   0.50720
H          H       0.51160   0.57050   0.98760
C          C       0.73800   0.76150   0.51315
C          C       0.77185   0.85950   0.52410
H          H       0.80560   0.89880   0.53010
C          C       0.78320   0.81110   0.51848
H          H       0.56500   0.86080   0.52335
H          H       0.50540   0.79420   0.50800
H          H       0.74735   0.72370   0.50580
H          H       0.68740   0.65660   0.51200
C          C       0.61270   0.55614   0.98884
C          C       0.66360   0.55560   0.95187
C          C       0.57350   0.50590   0.51650
C          C       0.67480   0.50740   0.94325
H          H       0.69490   0.59350   0.92675
C          C       0.58460   0.45760   0.50785
H          H       0.53380   0.50442   0.54770
C          C       0.63560   0.45739   0.97130
H          H       0.71470   0.50840   0.91315
H          H       0.55350   0.41910   0.53060
C          C       0.84070   0.81070   0.51540
C          C       0.88430   0.85570   0.98030
C          C       0.85370   0.76490   0.54550
C          C       0.93810   0.85480   0.97420
H          H       0.87610   0.89180   0.95435
C          C       0.90740   0.76390   0.53926
H          H       0.82150   0.72960   0.57638
C          C       0.95070   0.80870   0.50292
H          H       0.97100   0.89020   0.94501
H          H       0.91650   0.72780   0.56329
C          C       0.64070   0.96220   0.51281
C          C       0.59020   0.96380   0.97611
C          C       0.30111   0.70839   0.99195
H          H       0.33532   0.78890   0.55283
H          H       0.28117   0.62735   0.93283
C          C       0.62276   0.31219   0.99394
C          C       0.57582   0.26426   0.99634
C          C       0.67607   0.30750   0.99711
C          C       0.58151   0.21323   0.99900
H          H       0.53429   0.26765   0.99485
C          C       0.68173   0.25649   0.50150
H          H       0.71343   0.34402   0.99872
C          C       0.63484   0.20851   0.50116
H          H       0.54406   0.17683   0.50199
H          H       0.72327   0.25316   0.50411
C          C       0.17825   0.75157   0.51845
C          C       0.17331   0.80359   0.52683
C          C       0.12938   0.70545   0.51475
C          C       0.12166   0.80997   0.52748
H          H       0.21110   0.83947   0.53166
C          C       0.07770   0.71173   0.51716
H          H       0.13160   0.66419   0.51219
C          C       0.07288   0.76393   0.52145
H          H       0.11920   0.85094   0.53537
H          H       0.03987   0.67579   0.51401
N          N       0.61341   0.36183   0.99581
N          N       0.64401   0.15892   0.50966
N          N       0.23173   0.74886   0.52048
N          N       0.01953   0.76686   0.52607
C          C       0.60989   0.11357   0.97927
H          H       0.57115   0.11067   0.93984
C          C       0.64748   0.40655   0.96253
H          H       0.68680   0.40902   0.92500
C          C       0.24447   0.70934   0.98510
H          H       0.21395   0.67462   0.94655
C          C       0.00712   0.80728   0.99372
H          H       0.03778   0.84237   0.95564
C          C       0.48067   0.65801   0.75278
C          C       0.53606   0.65807   0.75327
C          C       0.58112   0.70840   0.75931
C          C       0.56951   0.75817   0.76288
C          C       0.51445   0.75608   0.75896
C          C       0.46912   0.70643   0.75482
C          C       0.63661   0.70765   0.76084
C          C       0.61585   0.80991   0.76815
C          C       0.67135   0.80915   0.76894
C          C       0.68293   0.75938   0.76520
C          C       0.71650   0.85953   0.77231
C          C       0.70588   0.90942   0.77099
C          C       0.65190   0.91040   0.76938
C          C       0.60749   0.85997   0.77073
H          H       0.44695   0.61849   0.75095
H          H       0.74154   0.94747   0.76863
C          C       0.54694   0.60841   0.74630
C          C       0.60096   0.60757   0.74787
C          C       0.64513   0.65771   0.75723
H          H       0.51160   0.57052   0.73762
C          C       0.73805   0.76154   0.76319
C          C       0.77185   0.85953   0.77411
H          H       0.80566   0.89882   0.78012
C          C       0.78326   0.81116   0.76848
H          H       0.56502   0.86080   0.77337
H          H       0.50544   0.79423   0.75812
H          H       0.74735   0.72374   0.75582
H          H       0.68746   0.65664   0.76202
C          C       0.61278   0.55614   0.73884
C          C       0.66367   0.55568   0.70186
C          C       0.57354   0.50591   0.76651
C          C       0.67488   0.50740   0.69329
H          H       0.53385   0.50442   0.79774
C          C       0.63565   0.45739   0.72130
H          H       0.71475   0.50848   0.66317
H          H       0.55359   0.41910   0.78063
C          C       0.84079   0.81074   0.76544
C          C       0.88439   0.85576   0.73033
C          C       0.85373   0.76497   0.79554
C          C       0.93819   0.85480   0.72422
H          H       0.87615   0.89188   0.70437
C          C       0.90744   0.76390   0.78927
H          H       0.82152   0.72962   0.82638
C          C       0.95073   0.80870   0.75291
H          H       0.97103   0.89027   0.69501
H          H       0.91650   0.72782   0.81329
C          C       0.64076   0.96229   0.76281
C          C       0.59028   0.96382   0.72611
C          C       0.68054   0.01213   0.79030
C          C       0.58036   0.01268   0.71638
H          H       0.55833   0.92643   0.70169
C          C       0.67078   0.06105   0.78033
H          H       0.71985   0.01293   0.82189
C          C       0.62050   0.06237   0.74269
H          H       0.54087   0.01236   0.68607
H          H       0.70253   0.09918   0.80247
C          C       0.41155   0.70685   0.75158
C          C       0.39827   0.75224   0.78264
C          C       0.36789   0.66206   0.71648
C          C       0.34444   0.75310   0.77776
H          H       0.43026   0.78757   0.81338
C          C       0.31396   0.66276   0.71183
H          H       0.37600   0.62612   0.68953
C          C       0.30111   0.70839   0.74195
H          H       0.33532   0.78890   0.80283
H          H       0.28117   0.62735   0.68283
C          C       0.62276   0.31219   0.74394
C          C       0.57582   0.26426   0.74634
C          C       0.67607   0.30750   0.74711
C          C       0.58151   0.21323   0.74900
H          H       0.53429   0.26765   0.74485
C          C       0.68173   0.25649   0.75150
H          H       0.71343   0.34402   0.74872
C          C       0.63484   0.20851   0.75116
H          H       0.54406   0.17683   0.75199
H          H       0.72327   0.25316   0.75412
C          C       0.17825   0.75157   0.76845
C          C       0.17331   0.80359   0.77683
C          C       0.12938   0.70545   0.76476
C          C       0.12166   0.80997   0.77748
H          H       0.21110   0.83947   0.78166
C          C       0.07770   0.71173   0.76716
H          H       0.13160   0.66419   0.76219
C          C       0.07288   0.76393   0.77145
H          H       0.11920   0.85094   0.78537
H          H       0.03987   0.67579   0.76401
N          N       0.61341   0.36183   0.74581
N          N       0.64401   0.15892   0.75966
N          N       0.23173   0.74886   0.77048
N          N       0.01953   0.76686   0.77608
C          C       0.60989   0.11357   0.72927
H          H       0.57115   0.11067   0.68984
C          C       0.64748   0.40655   0.71252
H          H       0.68680   0.40902   0.67500
C          C       0.24447   0.70934   0.73510
H          H       0.21395   0.67462   0.69655
C          C       0.00712   0.80728   0.74372
H          H       0.03778   0.84237   0.70564
