data_crystal
 
_cell_length_a    31.32830
_cell_length_b    31.32830
_cell_length_c    7.51830
_cell_angle_alpha 90.00000
_cell_angle_beta  90.00000
_cell_angle_gamma 120.00000
 
_symmetry_space_group_name_Hall 'P 1'
_symmetry_space_group_name_H-M  'P 1'
 
loop_
_symmetry_equiv_pos_as_xyz
 'x,y,z' 
 
loop_
_atom_site_label
_atom_site_type_symbol
_atom_site_fract_x
_atom_site_fract_y
_atom_site_fract_z
_atom_site_charge
B          B       0.55645   0.44355   0.00000   0.0000000000
C          C       0.52707   0.47293   0.00000   0.0000000000
B          B       0.55645   0.11290   0.00000   0.0000000000
C          C       0.52707   0.05414   0.00000   0.0000000000
B          B       0.88710   0.44355   0.00000   0.0000000000
C          C       0.94586   0.47293   0.00000   0.0000000000
B          B       0.44355   0.55645   0.00000   0.0000000000
C          C       0.47293   0.52707   0.00000   0.0000000000
B          B       0.44355   0.88710   0.00000   0.0000000000
C          C       0.47293   0.94586   0.00000   0.0000000000
B          B       0.11290   0.55645   0.00000   0.0000000000
C          C       0.05414   0.52707   0.00000   0.0000000000
C          C       0.28043   0.64021   0.09377   0.0000000000
C          C       0.19191   0.59596  -0.09267   0.0000000000
H          H       0.23543   0.61771  -0.33513   0.0000000000
O          O       0.14335   0.57168  -0.15305   0.0000000000
C          C       0.35979   0.64021   0.09377   0.0000000000
C          C       0.40404   0.59596  -0.09267   0.0000000000
H          H       0.38229   0.61771  -0.33513   0.0000000000
O          O       0.42832   0.57168  -0.15305   0.0000000000
C          C       0.35979   0.71957   0.09377   0.0000000000
C          C       0.40404   0.80809  -0.09267   0.0000000000
H          H       0.38229   0.76457  -0.33513   0.0000000000
O          O       0.42832   0.85665  -0.15305   0.0000000000
C          C       0.71957   0.35979   0.09377   0.0000000000
C          C       0.80809   0.40404  -0.09267   0.0000000000
H          H       0.76457   0.38229  -0.33513   0.0000000000
O          O       0.85665   0.42832  -0.15305   0.0000000000
C          C       0.64021   0.35979   0.09377   0.0000000000
C          C       0.59596   0.40404  -0.09267   0.0000000000
H          H       0.61771   0.38229  -0.33513   0.0000000000
O          O       0.57168   0.42832  -0.15305   0.0000000000
C          C       0.64021   0.28043   0.09377   0.0000000000
C          C       0.59596   0.19191  -0.09267   0.0000000000
H          H       0.61771   0.23543  -0.33513   0.0000000000
O          O       0.57168   0.14335  -0.15305   0.0000000000
C          C       0.64021   0.28043  -0.09377   0.0000000000
C          C       0.59596   0.19191   0.09267   0.0000000000
H          H       0.61771   0.23543   0.33513   0.0000000000
O          O       0.57168   0.14335   0.15305   0.0000000000
C          C       0.64021   0.35979  -0.09377   0.0000000000
C          C       0.59596   0.40404   0.09267   0.0000000000
H          H       0.61771   0.38229   0.33513   0.0000000000
O          O       0.57168   0.42832   0.15305   0.0000000000
C          C       0.71957   0.35979  -0.09377   0.0000000000
C          C       0.80809   0.40404   0.09267   0.0000000000
H          H       0.76457   0.38229   0.33513   0.0000000000
O          O       0.85665   0.42832   0.15305   0.0000000000
C          C       0.35979   0.71957  -0.09377   0.0000000000
C          C       0.40404   0.80809   0.09267   0.0000000000
H          H       0.38229   0.76457   0.33513   0.0000000000
O          O       0.42832   0.85665   0.15305   0.0000000000
C          C       0.35979   0.64021  -0.09377   0.0000000000
C          C       0.40404   0.59596   0.09267   0.0000000000
H          H       0.38229   0.61771   0.33513   0.0000000000
O          O       0.42832   0.57168   0.15305   0.0000000000
C          C       0.28043   0.64021  -0.09377   0.0000000000
C          C       0.19191   0.59596   0.09267   0.0000000000
H          H       0.23543   0.61771   0.33513   0.0000000000
O          O       0.14335   0.57168   0.15305   0.0000000000
C          C       0.33333   0.66667   0.17123   0.0000000000
H          H       0.33333   0.66667  -0.31739   0.0000000000
C          C       0.66667   0.33333   0.17123   0.0000000000
H          H       0.66667   0.33333  -0.31739   0.0000000000
C          C       0.66667   0.33333  -0.17123   0.0000000000
H          H       0.66667   0.33333   0.31739   0.0000000000
C          C       0.33333   0.66667  -0.17123   0.0000000000
H          H       0.33333   0.66667   0.31739   0.0000000000
C          C       0.48706   0.51294   0.15860   0.0000000000
H          H       0.47757   0.52243   0.28681   0.0000000000
C          C       0.38202   0.61798   0.18994   0.0000000000
C          C       0.48706   0.97412   0.15860   0.0000000000
H          H       0.47757   0.95514   0.28681   0.0000000000
C          C       0.38202   0.76404   0.18994   0.0000000000
C          C       0.02588   0.51294   0.15860   0.0000000000
H          H       0.04486   0.52243   0.28681   0.0000000000
C          C       0.23597   0.61798   0.18994   0.0000000000
C          C       0.51294   0.48706   0.15860   0.0000000000
H          H       0.52243   0.47757   0.28681   0.0000000000
C          C       0.61798   0.38202   0.18994   0.0000000000
C          C       0.51294   0.02588   0.15860   0.0000000000
H          H       0.52243   0.04486   0.28681   0.0000000000
C          C       0.61798   0.23597   0.18994   0.0000000000
C          C       0.97412   0.48706   0.15860   0.0000000000
H          H       0.95514   0.47757   0.28681   0.0000000000
C          C       0.76404   0.38202   0.18994   0.0000000000
C          C       0.51294   0.48706  -0.15860   0.0000000000
H          H       0.52243   0.47757  -0.28681   0.0000000000
C          C       0.61798   0.38202  -0.18994   0.0000000000
C          C       0.97412   0.48706  -0.15860   0.0000000000
H          H       0.95514   0.47757  -0.28681   0.0000000000
C          C       0.76404   0.38202  -0.18994   0.0000000000
C          C       0.51294   0.02588  -0.15860   0.0000000000
H          H       0.52243   0.04486  -0.28681   0.0000000000
C          C       0.61798   0.23597  -0.18994   0.0000000000
C          C       0.48706   0.51294  -0.15860   0.0000000000
H          H       0.47757   0.52243  -0.28681   0.0000000000
C          C       0.38202   0.61798  -0.18994   0.0000000000
C          C       0.02588   0.51294  -0.15860   0.0000000000
H          H       0.04486   0.52243  -0.28681   0.0000000000
C          C       0.23597   0.61798  -0.18994   0.0000000000
C          C       0.48706   0.97412  -0.15860   0.0000000000
H          H       0.47757   0.95514  -0.28681   0.0000000000
C          C       0.38202   0.76404  -0.18994   0.0000000000
