data_crystal

_cell_length_a    30.25770
_cell_length_b    30.25770
_cell_length_c    8.50140
_cell_angle_alpha 90.00000
_cell_angle_beta  90.00000
_cell_angle_gamma 120.00000

_space_group_name_Hall 'P 1'
_space_group_name_H-M_alt 'P 1'

loop_
_symmetry_equiv_pos_as_xyz
 'x,y,z'

loop_
_atom_site_label
_atom_site_type_symbol
_atom_site_fract_x
_atom_site_fract_y
_atom_site_fract_z
C          C       0.04518   0.61041   0.25000
C          C       0.38959   0.43477   0.25000
C          C       0.56523   0.95482   0.25000
C          C       0.04572   0.65706   0.25000
C          C       0.34294   0.38866   0.25000
C          C       0.61134   0.95428   0.25000
C          C       0.09250   0.60812   0.25000
C          C       0.39188   0.48438   0.25000
C          C       0.51562   0.90750   0.25000
C          C       0.71744   0.37827   0.25000
C          C       0.62173   0.33917   0.25000
C          C       0.66083   0.28256   0.25000
C          C       0.72754   0.42365   0.25000
C          C       0.57635   0.30389   0.25000
C          C       0.69611   0.27246   0.25000
C          C       0.77594   0.46729   0.25000
C          C       0.53271   0.30865   0.25000
C          C       0.69135   0.22406   0.25000
C          C       0.81559   0.46656   0.25000
C          C       0.53344   0.34903   0.25000
C          C       0.65097   0.18441   0.25000
C          C       0.80606   0.42156   0.25000
C          C       0.57844   0.38450   0.25000
C          C       0.61550   0.19394   0.25000
C          C       0.75762   0.37803   0.25000
C          C       0.62197   0.37959   0.25000
C          C       0.62041   0.24238   0.25000
N          N       0.86396   0.51284   0.25000
N          N       0.48716   0.35112   0.25000
N          N       0.64888   0.13604   0.25000
C          C       0.61040   0.04518   0.25000
C          C       0.95482   0.56522   0.25000
C          C       0.43478   0.38960   0.25000
C          C       0.65706   0.04572   0.25000
C          C       0.95428   0.61134   0.25000
C          C       0.38866   0.34294   0.25000
C          C       0.60810   0.09249   0.25000
C          C       0.90751   0.51561   0.25000
C          C       0.48439   0.39190   0.25000
C          C       0.37827   0.71744   0.25000
C          C       0.28256   0.66083   0.25000
C          C       0.33917   0.62173   0.25000
C          C       0.42365   0.72754   0.25000
C          C       0.27246   0.69611   0.25000
C          C       0.30389   0.57635   0.25000
C          C       0.46729   0.77593   0.25000
C          C       0.22407   0.69136   0.25000
C          C       0.30864   0.53271   0.25000
C          C       0.46657   0.81558   0.25000
C          C       0.18442   0.65099   0.25000
C          C       0.34901   0.53343   0.25000
C          C       0.42156   0.80605   0.25000
C          C       0.19395   0.61551   0.25000
C          C       0.38449   0.57844   0.25000
C          C       0.37804   0.75761   0.25000
C          C       0.24239   0.62043   0.25000
C          C       0.37957   0.62196   0.25000
N          N       0.51285   0.86395   0.25000
N          N       0.13605   0.64890   0.25000
N          N       0.35110   0.48715   0.25000
C          C       0.00000   0.65737   0.25000
C          C       0.34263   0.34263   0.25000
C          C       0.65737   1.00000   0.25000
N          N       0.00000   0.56609   0.25000
N          N       0.43391   0.43391   0.25000
N          N       0.56609   0.00000   0.25000
H          H       0.08123   0.69272   0.25000
H          H       0.30728   0.38851   0.25000
H          H       0.61149   0.91877   0.25000
H          H       0.08965   0.57119   0.25000
H          H       0.42881   0.51846   0.25000
H          H       0.48154   0.91035   0.25000
H          H       0.69773   0.42572   0.25000
H          H       0.57428   0.27201   0.25000
H          H       0.72799   0.30227   0.25000
H          H       0.78286   0.50194   0.25000
H          H       0.49806   0.28092   0.25000
H          H       0.71908   0.21714   0.25000
H          H       0.83528   0.42024   0.25000
H          H       0.57976   0.41504   0.25000
H          H       0.58496   0.16472   0.25000
H          H       0.75147   0.34421   0.25000
H          H       0.65579   0.40726   0.25000
H          H       0.59274   0.24853   0.25000
H          H       0.69271   0.08123   0.25000
H          H       0.91877   0.61148   0.25000
H          H       0.38852   0.30729   0.25000
H          H       0.57117   0.08963   0.25000
H          H       0.91037   0.48154   0.25000
H          H       0.51846   0.42883   0.25000
H          H       0.42572   0.69773   0.25000
H          H       0.30227   0.72799   0.25000
H          H       0.27201   0.57428   0.25000
H          H       0.50195   0.78286   0.25000
H          H       0.21714   0.71909   0.25000
H          H       0.28091   0.49805   0.25000
H          H       0.42024   0.83527   0.25000
H          H       0.16473   0.58497   0.25000
H          H       0.41503   0.57976   0.25000
H          H       0.34421   0.75147   0.25000
H          H       0.24853   0.59274   0.25000
H          H       0.40726   0.65579   0.25000
H          H       0.99999   0.69316   0.25000
H          H       0.30684   0.30683   0.25000
H          H       0.69317   0.00001   0.25000
N          N       0.66667   0.33333   0.25000
N          N       0.33333   0.66667   0.25000
C          C       0.04518   0.61041   0.75000
C          C       0.38959   0.43477   0.75000
C          C       0.56523   0.95482   0.75000
C          C       0.04572   0.65706   0.75000
C          C       0.34294   0.38866   0.75000
C          C       0.61134   0.95428   0.75000
C          C       0.09250   0.60812   0.75000
C          C       0.39188   0.48438   0.75000
C          C       0.51562   0.90750   0.75000
C          C       0.71744   0.37827   0.75000
C          C       0.62173   0.33917   0.75000
C          C       0.66083   0.28256   0.75000
C          C       0.72754   0.42365   0.75000
C          C       0.57635   0.30389   0.75000
C          C       0.69611   0.27246   0.75000
C          C       0.77594   0.46729   0.75000
C          C       0.53271   0.30865   0.75000
C          C       0.69135   0.22406   0.75000
C          C       0.81559   0.46656   0.75000
C          C       0.53344   0.34903   0.75000
C          C       0.65097   0.18441   0.75000
C          C       0.80606   0.42156   0.75000
C          C       0.57844   0.38450   0.75000
C          C       0.61550   0.19394   0.75000
C          C       0.75762   0.37803   0.75000
C          C       0.62197   0.37959   0.75000
C          C       0.62041   0.24238   0.75000
N          N       0.86396   0.51284   0.75000
N          N       0.48716   0.35112   0.75000
N          N       0.64888   0.13604   0.75000
C          C       0.61040   0.04518   0.75000
C          C       0.95482   0.56522   0.75000
C          C       0.43478   0.38960   0.75000
C          C       0.65706   0.04572   0.75000
C          C       0.95428   0.61134   0.75000
C          C       0.38866   0.34294   0.75000
C          C       0.60810   0.09249   0.75000
C          C       0.90751   0.51561   0.75000
C          C       0.48439   0.39190   0.75000
C          C       0.37827   0.71744   0.75000
C          C       0.28256   0.66083   0.75000
C          C       0.33917   0.62173   0.75000
C          C       0.42365   0.72754   0.75000
C          C       0.27246   0.69611   0.75000
C          C       0.30389   0.57635   0.75000
C          C       0.46729   0.77593   0.75000
C          C       0.22407   0.69136   0.75000
C          C       0.30864   0.53271   0.75000
C          C       0.46657   0.81558   0.75000
C          C       0.18442   0.65099   0.75000
C          C       0.34901   0.53343   0.75000
C          C       0.42156   0.80605   0.75000
C          C       0.19395   0.61551   0.75000
C          C       0.38449   0.57844   0.75000
C          C       0.37804   0.75761   0.75000
C          C       0.24239   0.62043   0.75000
C          C       0.37957   0.62196   0.75000
N          N       0.51285   0.86395   0.75000
N          N       0.13605   0.64890   0.75000
N          N       0.35110   0.48715   0.75000
C          C       0.00000   0.65737   0.75000
C          C       0.34263   0.34263   0.75000
C          C       0.65737   1.00000   0.75000
N          N       0.00000   0.56609   0.75000
N          N       0.43391   0.43391   0.75000
N          N       0.56609   0.00000   0.75000
H          H       0.08123   0.69272   0.75000
H          H       0.30728   0.38851   0.75000
H          H       0.61149   0.91877   0.75000
H          H       0.08965   0.57119   0.75000
H          H       0.42881   0.51846   0.75000
H          H       0.48154   0.91035   0.75000
H          H       0.69773   0.42572   0.75000
H          H       0.57428   0.27201   0.75000
H          H       0.72799   0.30227   0.75000
H          H       0.78286   0.50194   0.75000
H          H       0.49806   0.28092   0.75000
H          H       0.71908   0.21714   0.75000
H          H       0.83528   0.42024   0.75000
H          H       0.57976   0.41504   0.75000
H          H       0.58496   0.16472   0.75000
H          H       0.75147   0.34421   0.75000
H          H       0.65579   0.40726   0.75000
H          H       0.59274   0.24853   0.75000
H          H       0.69271   0.08123   0.75000
H          H       0.91877   0.61148   0.75000
H          H       0.38852   0.30729   0.75000
H          H       0.57117   0.08963   0.75000
H          H       0.91037   0.48154   0.75000
H          H       0.51846   0.42883   0.75000
H          H       0.42572   0.69773   0.75000
H          H       0.30227   0.72799   0.75000
H          H       0.27201   0.57428   0.75000
H          H       0.50195   0.78286   0.75000
H          H       0.21714   0.71909   0.75000
H          H       0.28091   0.49805   0.75000
H          H       0.42024   0.83527   0.75000
H          H       0.16473   0.58497   0.75000
H          H       0.41503   0.57976   0.75000
H          H       0.34421   0.75147   0.75000
H          H       0.24853   0.59274   0.75000
H          H       0.40726   0.65579   0.75000
H          H       0.99999   0.69316   0.75000
H          H       0.30684   0.30683   0.75000
H          H       0.69317   0.00001   0.75000
N          N       0.66667   0.33333   0.75000
N          N       0.33333   0.66667   0.75000
