data_crystal

_cell_length_a    44.72000
_cell_length_b    44.72000
_cell_length_c    8.47400
_cell_angle_alpha 90.00000
_cell_angle_beta  90.00000
_cell_angle_gamma 120.00000

_space_group_name_Hall 'P 1'
_space_group_name_H-M_alt 'P 1'

loop_
_symmetry_equiv_pos_as_xyz
 'x,y,z'

loop_
_atom_site_label
_atom_site_type_symbol
_atom_site_fract_x
_atom_site_fract_y
_atom_site_fract_z
C          C       0.57846   0.58886   0.34054
C          C       0.41114   0.98960   0.34054
C          C       0.01040   0.42154   0.34054
C          C       0.42154   0.41114   0.34054
C          C       0.58886   0.01040   0.34054
C          C       0.98960   0.57846   0.34054
C          C       0.59646   0.62747   0.38238
C          C       0.37253   0.96899   0.38238
C          C       0.03101   0.40354   0.38238
C          C       0.40354   0.37253   0.38238
C          C       0.62747   0.03101   0.38238
C          C       0.96899   0.59646   0.38238
C          C       0.57567   0.64457   0.32464
C          C       0.35543   0.93110   0.32464
C          C       0.06890   0.42433   0.32464
C          C       0.42433   0.35543   0.32464
C          C       0.64457   0.06890   0.32464
C          C       0.93110   0.57567   0.32464
C          C       0.63430   0.64624   0.32716
C          C       0.35376   0.98806   0.32716
C          C       0.01194   0.36570   0.32716
C          C       0.36570   0.35376   0.32716
C          C       0.64624   0.01194   0.32716
C          C       0.98806   0.63430   0.32716
C          C       0.59309   0.68311   0.36255
C          C       0.31689   0.90998   0.36255
C          C       0.09002   0.40691   0.36255
C          C       0.40691   0.31689   0.36255
C          C       0.68311   0.09002   0.36255
C          C       0.90998   0.59309   0.36255
C          C       0.68834   0.36916   0.10032
C          C       0.63084   0.31918   0.10032
C          C       0.68082   0.31166   0.10032
C          C       0.31166   0.63084   0.10032
C          C       0.36916   0.68082   0.10032
C          C       0.31918   0.68834   0.10032
C          C       0.65237   0.35522   0.10000
C          C       0.64478   0.29715   0.10000
C          C       0.70285   0.34763   0.10000
C          C       0.34763   0.64478   0.10000
C          C       0.35522   0.70285   0.10000
C          C       0.29715   0.65237   0.10000
C          C       0.52247   0.53624   0.37616
C          C       0.46376   0.98623   0.37616
C          C       0.01377   0.47753   0.37616
C          C       0.47753   0.46376   0.37616
C          C       0.53624   0.01377   0.37616
C          C       0.98623   0.52247   0.37616
C          C       0.53568   0.51349   0.37286
C          C       0.48651   0.02219   0.37286
C          C       0.97781   0.46432   0.37286
C          C       0.46432   0.48651   0.37286
C          C       0.51349   0.97781   0.37286
C          C       0.02219   0.53568   0.37286
C          C       0.52837   0.45446   0.38426
C          C       0.54554   0.07391   0.38426
C          C       0.92609   0.47163   0.38426
C          C       0.47163   0.54554   0.38426
C          C       0.45446   0.92609   0.38426
C          C       0.07391   0.52837   0.38426
C          C       0.51356   0.47759   0.37674
C          C       0.52241   0.03597   0.37674
C          C       0.96403   0.48644   0.37674
C          C       0.48644   0.52241   0.37674
C          C       0.47759   0.96403   0.37674
C          C       0.03597   0.51356   0.37674
O          O       0.51525   0.42785   0.30719
O          O       0.57215   0.08740   0.30719
O          O       0.91260   0.48475   0.30719
O          O       0.48475   0.57215   0.30719
O          O       0.42785   0.91260   0.30719
O          O       0.08740   0.51525   0.30719
N          N       0.55623   0.46241   0.47824
N          N       0.53759   0.09382   0.47824
N          N       0.90618   0.44377   0.47824
N          N       0.44377   0.53759   0.47824
N          N       0.46241   0.90618   0.47824
N          N       0.09382   0.55623   0.47824
N          N       0.56975   0.44009   0.48656
N          N       0.55991   0.12966   0.48656
N          N       0.87034   0.43025   0.48656
N          N       0.43025   0.55991   0.48656
N          N       0.44009   0.87034   0.48656
N          N       0.12966   0.56975   0.48656
C          C       0.59560   0.44643   0.07737
C          C       0.55357   0.14917   0.07737
C          C       0.85083   0.40440   0.07737
C          C       0.40440   0.55357   0.07737
C          C       0.44643   0.85083   0.07737
C          C       0.14917   0.59560   0.07737
O          O       0.54363   0.57219   0.39643
O          O       0.42781   0.97144   0.39643
O          O       0.02856   0.45637   0.39643
O          O       0.45637   0.42781   0.39643
O          O       0.57219   0.02856   0.39643
O          O       0.97144   0.54363   0.39643
H          H       0.59311   0.57811   0.40029
H          H       0.42189   0.01500   0.40029
H          H       0.98500   0.40689   0.40029
H          H       0.40689   0.42189   0.40029
H          H       0.57811   0.98500   0.40029
H          H       0.01500   0.59311   0.40029
H          H       0.57871   0.58523   0.21097
H          H       0.41477   0.99348   0.21097
H          H       0.00652   0.42129   0.21097
H          H       0.42129   0.41477   0.21097
H          H       0.58523   0.00652   0.21097
H          H       0.99348   0.57871   0.21097
H          H       0.59704   0.62874   0.01197
H          H       0.37126   0.96830   0.01197
H          H       0.03170   0.40296   0.01197
H          H       0.40296   0.37126   0.01197
H          H       0.62874   0.03170   0.01197
H          H       0.96830   0.59704   0.01197
H          H       0.55010   0.63184   0.38412
H          H       0.36816   0.91826   0.38412
H          H       0.08174   0.44990   0.38412
H          H       0.44990   0.36816   0.38412
H          H       0.63184   0.08174   0.38412
H          H       0.91826   0.55010   0.38412
H          H       0.57061   0.64082   0.19643
H          H       0.35918   0.92979   0.19643
H          H       0.07021   0.42939   0.19643
H          H       0.42939   0.35918   0.19643
H          H       0.64082   0.07021   0.19643
H          H       0.92979   0.57061   0.19643
H          H       0.63644   0.64965   0.19770
H          H       0.35035   0.98679   0.19770
H          H       0.01321   0.36356   0.19770
H          H       0.36356   0.35035   0.19770
H          H       0.64965   0.01321   0.19770
H          H       0.98679   0.63644   0.19770
H          H       0.64716   0.63153   0.36301
H          H       0.36847   0.01563   0.36301
H          H       0.98437   0.35284   0.36301
H          H       0.35284   0.36847   0.36301
H          H       0.63153   0.98437   0.36301
H          H       0.01563   0.64716   0.36301
H          H       0.64878   0.67204   0.38354
H          H       0.32796   0.97674   0.38354
H          H       0.02326   0.35122   0.38354
H          H       0.35122   0.32796   0.38354
H          H       0.67204   0.02326   0.38354
H          H       0.97674   0.64878   0.38354
H          H       0.61656   0.69791   0.28917
H          H       0.30209   0.91865   0.28917
H          H       0.08135   0.38344   0.28917
H          H       0.38344   0.30209   0.28917
H          H       0.69791   0.08135   0.28917
H          H       0.91865   0.61656   0.28917
H          H       0.60018   0.68776   0.48932
H          H       0.31224   0.91242   0.48932
H          H       0.08758   0.39982   0.48932
H          H       0.39982   0.31224   0.48932
H          H       0.68776   0.08758   0.48932
H          H       0.91242   0.60018   0.48932
H          H       0.57503   0.69268   0.33588
H          H       0.30732   0.88235   0.33588
H          H       0.11765   0.42497   0.33588
H          H       0.42497   0.30732   0.33588
H          H       0.69268   0.11765   0.33588
H          H       0.88235   0.57503   0.33588
C          C       0.63734   0.37829   0.09599
C          C       0.62171   0.25905   0.09599
C          C       0.74095   0.36266   0.09599
C          C       0.36266   0.62171   0.09599
C          C       0.37829   0.74095   0.09599
C          C       0.25905   0.63734   0.09599
C          C       0.59384   0.39138   0.49973
C          C       0.60862   0.20246   0.49973
C          C       0.79754   0.40616   0.49973
C          C       0.40616   0.60862   0.49973
C          C       0.39138   0.79754   0.49973
C          C       0.20246   0.59384   0.49973
C          C       0.60770   0.36949   0.00550
C          C       0.63051   0.23821   0.00550
C          C       0.76179   0.39230   0.00550
C          C       0.39230   0.63051   0.00550
C          C       0.36949   0.76179   0.00550
C          C       0.23821   0.60770   0.00550
C          C       0.65270   0.40949   0.18097
C          C       0.59051   0.24321   0.18097
C          C       0.75679   0.34730   0.18097
C          C       0.34730   0.59051   0.18097
C          C       0.40949   0.75679   0.18097
C          C       0.24321   0.65270   0.18097
C          C       0.63890   0.43144   0.17461
C          C       0.56856   0.20746   0.17461
C          C       0.79254   0.36110   0.17461
C          C       0.36110   0.56856   0.17461
C          C       0.43144   0.79254   0.17461
C          C       0.20746   0.63890   0.17461
C          C       0.60945   0.42265   0.08372
C          C       0.57735   0.18680   0.08372
C          C       0.81320   0.39055   0.08372
C          C       0.39055   0.57735   0.08372
C          C       0.42265   0.81320   0.08372
C          C       0.18680   0.60945   0.08372
H          H       0.70512   0.39690   0.09950
H          H       0.60310   0.30822   0.09950
H          H       0.69178   0.29488   0.09950
H          H       0.29488   0.60310   0.09950
H          H       0.39690   0.69178   0.09950
H          H       0.30822   0.70512   0.09950
H          H       0.56314   0.52323   0.37189
H          H       0.47677   0.03991   0.37189
H          H       0.96009   0.43686   0.37189
H          H       0.43686   0.47677   0.37189
H          H       0.52323   0.96009   0.37189
H          H       0.03991   0.56314   0.37189
H          H       0.56677   0.48459   0.04864
H          H       0.51541   0.08218   0.04864
H          H       0.91782   0.43323   0.04864
H          H       0.43323   0.51541   0.04864
H          H       0.48459   0.91782   0.04864
H          H       0.08218   0.56677   0.04864
H          H       0.60745   0.46962   0.14906
H          H       0.53038   0.13783   0.14906
H          H       0.86217   0.39255   0.14906
H          H       0.39255   0.53038   0.14906
H          H       0.46962   0.86217   0.14906
H          H       0.13783   0.60745   0.14906
H          H       0.57119   0.38399   0.42775
H          H       0.61601   0.18720   0.42775
H          H       0.81280   0.42881   0.42775
H          H       0.42881   0.61601   0.42775
H          H       0.38399   0.81280   0.42775
H          H       0.18720   0.57119   0.42775
H          H       0.59565   0.34608   0.43571
H          H       0.65392   0.24957   0.43571
H          H       0.75043   0.40435   0.43571
H          H       0.40435   0.65392   0.43571
H          H       0.34608   0.75043   0.43571
H          H       0.24957   0.59565   0.43571
H          H       0.67507   0.41672   0.25465
H          H       0.58328   0.25835   0.25465
H          H       0.74165   0.32493   0.25465
H          H       0.32493   0.58328   0.25465
H          H       0.41672   0.74165   0.25465
H          H       0.25835   0.67507   0.25465
H          H       0.65118   0.45527   0.24153
H          H       0.54473   0.19591   0.24153
H          H       0.80409   0.34882   0.24153
H          H       0.34882   0.54473   0.24153
H          H       0.45527   0.80409   0.24153
H          H       0.19591   0.65118   0.24153
C          C       0.57846   0.58886   0.84054
C          C       0.41114   0.98960   0.84054
C          C       0.01040   0.42154   0.84054
C          C       0.42154   0.41114   0.84054
C          C       0.58886   0.01040   0.84054
C          C       0.98960   0.57846   0.84054
C          C       0.59646   0.62747   0.88237
C          C       0.37253   0.96899   0.88237
C          C       0.03101   0.40354   0.88237
C          C       0.40354   0.37253   0.88237
C          C       0.62747   0.03101   0.88237
C          C       0.96899   0.59646   0.88237
C          C       0.57567   0.64457   0.82464
C          C       0.35543   0.93110   0.82464
C          C       0.06890   0.42433   0.82464
C          C       0.42433   0.35543   0.82464
C          C       0.64457   0.06890   0.82464
C          C       0.93110   0.57567   0.82464
C          C       0.63430   0.64624   0.82716
C          C       0.35376   0.98806   0.82716
C          C       0.01194   0.36570   0.82716
C          C       0.36570   0.35376   0.82716
C          C       0.64624   0.01194   0.82716
C          C       0.98806   0.63430   0.82716
C          C       0.59309   0.68311   0.86255
C          C       0.31689   0.90998   0.86255
C          C       0.09002   0.40691   0.86255
C          C       0.40691   0.31689   0.86255
C          C       0.68311   0.09002   0.86255
C          C       0.90998   0.59309   0.86255
C          C       0.68834   0.36916   0.60032
C          C       0.63084   0.31918   0.60032
C          C       0.68082   0.31166   0.60032
C          C       0.31166   0.63084   0.60032
C          C       0.36916   0.68082   0.60032
C          C       0.31918   0.68834   0.60032
C          C       0.65237   0.35522   0.60000
C          C       0.64478   0.29715   0.60000
C          C       0.70285   0.34763   0.60000
C          C       0.34763   0.64478   0.60000
C          C       0.35522   0.70285   0.60000
C          C       0.29715   0.65237   0.60000
C          C       0.52247   0.53624   0.87616
C          C       0.46376   0.98623   0.87616
C          C       0.01377   0.47753   0.87616
C          C       0.47753   0.46376   0.87616
C          C       0.53624   0.01377   0.87616
C          C       0.98623   0.52247   0.87616
C          C       0.53568   0.51349   0.87286
C          C       0.48651   0.02219   0.87286
C          C       0.97781   0.46432   0.87286
C          C       0.46432   0.48651   0.87286
C          C       0.51349   0.97781   0.87286
C          C       0.02219   0.53568   0.87286
C          C       0.52837   0.45446   0.88426
C          C       0.54554   0.07391   0.88426
C          C       0.92609   0.47163   0.88426
C          C       0.47163   0.54554   0.88426
C          C       0.45446   0.92609   0.88426
C          C       0.07391   0.52837   0.88426
C          C       0.51356   0.47759   0.87674
C          C       0.52241   0.03597   0.87674
C          C       0.96403   0.48644   0.87674
C          C       0.48644   0.52241   0.87674
C          C       0.47759   0.96403   0.87674
C          C       0.03597   0.51356   0.87674
O          O       0.51525   0.42785   0.80719
O          O       0.57215   0.08740   0.80719
O          O       0.91260   0.48475   0.80719
O          O       0.48475   0.57215   0.80719
O          O       0.42785   0.91260   0.80719
O          O       0.08740   0.51525   0.80719
N          N       0.55623   0.46241   0.97824
N          N       0.53759   0.09382   0.97824
N          N       0.90618   0.44377   0.97824
N          N       0.44377   0.53759   0.97824
N          N       0.46241   0.90618   0.97824
N          N       0.09382   0.55623   0.97824
N          N       0.56975   0.44009   0.98655
N          N       0.55991   0.12966   0.98655
N          N       0.87034   0.43025   0.98655
N          N       0.43025   0.55991   0.98655
N          N       0.44009   0.87034   0.98655
N          N       0.12966   0.56975   0.98655
C          C       0.59560   0.44643   0.57737
C          C       0.55357   0.14917   0.57737
C          C       0.85083   0.40440   0.57737
C          C       0.40440   0.55357   0.57737
C          C       0.44643   0.85083   0.57737
C          C       0.14917   0.59560   0.57737
O          O       0.54363   0.57219   0.89643
O          O       0.42781   0.97144   0.89643
O          O       0.02856   0.45637   0.89643
O          O       0.45637   0.42781   0.89643
O          O       0.57219   0.02856   0.89643
O          O       0.97144   0.54363   0.89643
H          H       0.59311   0.57811   0.90029
H          H       0.42189   0.01500   0.90029
H          H       0.98500   0.40689   0.90029
H          H       0.40689   0.42189   0.90029
H          H       0.57811   0.98500   0.90029
H          H       0.01500   0.59311   0.90029
H          H       0.57871   0.58523   0.71097
H          H       0.41477   0.99348   0.71097
H          H       0.00652   0.42129   0.71097
H          H       0.42129   0.41477   0.71097
H          H       0.58523   0.00652   0.71097
H          H       0.99348   0.57871   0.71097
H          H       0.59704   0.62874   0.51197
H          H       0.37126   0.96830   0.51197
H          H       0.03170   0.40296   0.51197
H          H       0.40296   0.37126   0.51197
H          H       0.62874   0.03170   0.51197
H          H       0.96830   0.59704   0.51197
H          H       0.55010   0.63184   0.88412
H          H       0.36816   0.91826   0.88412
H          H       0.08174   0.44990   0.88412
H          H       0.44990   0.36816   0.88412
H          H       0.63184   0.08174   0.88412
H          H       0.91826   0.55010   0.88412
H          H       0.57061   0.64082   0.69642
H          H       0.35918   0.92979   0.69642
H          H       0.07021   0.42939   0.69642
H          H       0.42939   0.35918   0.69642
H          H       0.64082   0.07021   0.69642
H          H       0.92979   0.57061   0.69642
H          H       0.63644   0.64965   0.69770
H          H       0.35035   0.98679   0.69770
H          H       0.01321   0.36356   0.69770
H          H       0.36356   0.35035   0.69770
H          H       0.64965   0.01321   0.69770
H          H       0.98679   0.63644   0.69770
H          H       0.64716   0.63153   0.86301
H          H       0.36847   0.01563   0.86301
H          H       0.98437   0.35284   0.86301
H          H       0.35284   0.36847   0.86301
H          H       0.63153   0.98437   0.86301
H          H       0.01563   0.64716   0.86301
H          H       0.64878   0.67204   0.88353
H          H       0.32796   0.97674   0.88353
H          H       0.02326   0.35122   0.88353
H          H       0.35122   0.32796   0.88353
H          H       0.67204   0.02326   0.88353
H          H       0.97674   0.64878   0.88353
H          H       0.61656   0.69791   0.78917
H          H       0.30209   0.91865   0.78917
H          H       0.08135   0.38344   0.78917
H          H       0.38344   0.30209   0.78917
H          H       0.69791   0.08135   0.78917
H          H       0.91865   0.61656   0.78917
H          H       0.60018   0.68776   0.98932
H          H       0.31224   0.91242   0.98932
H          H       0.08758   0.39982   0.98932
H          H       0.39982   0.31224   0.98932
H          H       0.68776   0.08758   0.98932
H          H       0.91242   0.60018   0.98932
H          H       0.57503   0.69268   0.83588
H          H       0.30732   0.88235   0.83588
H          H       0.11765   0.42497   0.83588
H          H       0.42497   0.30732   0.83588
H          H       0.69268   0.11765   0.83588
H          H       0.88235   0.57503   0.83588
C          C       0.63734   0.37829   0.59599
C          C       0.62171   0.25905   0.59599
C          C       0.74095   0.36266   0.59599
C          C       0.36266   0.62171   0.59599
C          C       0.37829   0.74095   0.59599
C          C       0.25905   0.63734   0.59599
C          C       0.59384   0.39138   0.99974
C          C       0.60862   0.20246   0.99974
C          C       0.79754   0.40616   0.99974
C          C       0.40616   0.60862   0.99974
C          C       0.39138   0.79754   0.99974
C          C       0.20246   0.59384   0.99974
C          C       0.60770   0.36949   0.50550
C          C       0.63051   0.23821   0.50550
C          C       0.76179   0.39230   0.50550
C          C       0.39230   0.63051   0.50550
C          C       0.36949   0.76179   0.50550
C          C       0.23821   0.60770   0.50550
C          C       0.65270   0.40949   0.68097
C          C       0.59051   0.24321   0.68097
C          C       0.75679   0.34730   0.68097
C          C       0.34730   0.59051   0.68097
C          C       0.40949   0.75679   0.68097
C          C       0.24321   0.65270   0.68097
C          C       0.63890   0.43144   0.67460
C          C       0.56856   0.20746   0.67460
C          C       0.79254   0.36110   0.67460
C          C       0.36110   0.56856   0.67460
C          C       0.43144   0.79254   0.67460
C          C       0.20746   0.63890   0.67460
C          C       0.60945   0.42265   0.58372
C          C       0.57735   0.18680   0.58372
C          C       0.81320   0.39055   0.58372
C          C       0.39055   0.57735   0.58372
C          C       0.42265   0.81320   0.58372
C          C       0.18680   0.60945   0.58372
H          H       0.70512   0.39690   0.59950
H          H       0.60310   0.30822   0.59950
H          H       0.69178   0.29488   0.59950
H          H       0.29488   0.60310   0.59950
H          H       0.39690   0.69178   0.59950
H          H       0.30822   0.70512   0.59950
H          H       0.56314   0.52323   0.87189
H          H       0.47677   0.03991   0.87189
H          H       0.96009   0.43686   0.87189
H          H       0.43686   0.47677   0.87189
H          H       0.52323   0.96009   0.87189
H          H       0.03991   0.56314   0.87189
H          H       0.56677   0.48459   0.54864
H          H       0.51541   0.08218   0.54864
H          H       0.91782   0.43323   0.54864
H          H       0.43323   0.51541   0.54864
H          H       0.48459   0.91782   0.54864
H          H       0.08218   0.56677   0.54864
H          H       0.60745   0.46962   0.64906
H          H       0.53038   0.13783   0.64906
H          H       0.86217   0.39255   0.64906
H          H       0.39255   0.53038   0.64906
H          H       0.46962   0.86217   0.64906
H          H       0.13783   0.60745   0.64906
H          H       0.57119   0.38399   0.92775
H          H       0.61601   0.18720   0.92775
H          H       0.81280   0.42881   0.92775
H          H       0.42881   0.61601   0.92775
H          H       0.38399   0.81280   0.92775
H          H       0.18720   0.57119   0.92775
H          H       0.59565   0.34608   0.93571
H          H       0.65392   0.24957   0.93571
H          H       0.75043   0.40435   0.93571
H          H       0.40435   0.65392   0.93571
H          H       0.34608   0.75043   0.93571
H          H       0.24957   0.59565   0.93571
H          H       0.67507   0.41672   0.75465
H          H       0.58328   0.25835   0.75465
H          H       0.74165   0.32493   0.75465
H          H       0.32493   0.58328   0.75465
H          H       0.41672   0.74165   0.75465
H          H       0.25835   0.67507   0.75465
H          H       0.65118   0.45527   0.74153
H          H       0.54473   0.19591   0.74153
H          H       0.80409   0.34882   0.74153
H          H       0.34882   0.54473   0.74153
H          H       0.45527   0.80409   0.74153
H          H       0.19591   0.65118   0.74153
