data_crystal

_cell_length_a    60.45000
_cell_length_b    50.19000
_cell_length_c    8.98000
_cell_angle_alpha 90.00000
_cell_angle_beta  113.92000
_cell_angle_gamma 90.00000

_space_group_name_Hall 'P 1'
_space_group_name_H-M_alt 'P 1'

loop_
_symmetry_equiv_pos_as_xyz
 'x,y,z'

loop_
_atom_site_label
_atom_site_type_symbol
_atom_site_fract_x
_atom_site_fract_y
_atom_site_fract_z
C          C       0.01103   0.08505   0.25297
C          C       0.01103   0.91495   0.25297
C          C       0.92955   0.01309   0.24872
C          C       0.07045   0.01309   0.25128
C          C       0.95258   0.02177   0.24748
C          C       0.04742   0.02177   0.25252
C          C       0.45258   0.52177   0.24748
C          C       0.54742   0.52177   0.25252
C          C       0.04742   0.97823   0.25252
C          C       0.95258   0.97823   0.24748
C          C       0.54742   0.47823   0.25252
C          C       0.45258   0.47823   0.24748
C          C       0.42955   0.51309   0.24872
C          C       0.57045   0.51309   0.25128
C          C       0.07045   0.98691   0.25128
C          C       0.92955   0.98691   0.24872
C          C       0.57045   0.48691   0.25128
C          C       0.42955   0.48691   0.24872
C          C       0.84594   0.14534   0.11270
C          C       0.15406   0.14534   0.38730
C          C       0.34594   0.64534   0.11270
C          C       0.65406   0.64534   0.38730
C          C       0.15406   0.85466   0.38730
C          C       0.84594   0.85466   0.11270
C          C       0.65406   0.35466   0.38730
C          C       0.34594   0.35466   0.11270
C          C       0.85473   0.16488   0.24082
C          C       0.14527   0.16488   0.25918
C          C       0.35473   0.66488   0.24082
C          C       0.64527   0.66488   0.25918
C          C       0.14527   0.83512   0.25918
C          C       0.85473   0.83512   0.24082
C          C       0.64527   0.33512   0.25918
C          C       0.35473   0.33512   0.24082
C          C       0.83795   0.18296   0.25718
C          C       0.16205   0.18296   0.24282
C          C       0.33795   0.68296   0.25718
C          C       0.66205   0.68296   0.24282
C          C       0.16205   0.81704   0.24282
C          C       0.83795   0.81704   0.25718
C          C       0.66205   0.31704   0.24282
C          C       0.33795   0.31704   0.25718
C          C       0.81315   0.18162   0.14982
C          C       0.18685   0.18162   0.35018
C          C       0.31315   0.68162   0.14982
C          C       0.68685   0.68162   0.35018
C          C       0.18685   0.81838   0.35018
C          C       0.81315   0.81838   0.14982
C          C       0.68685   0.31838   0.35018
C          C       0.31315   0.31838   0.14982
C          C       0.80469   0.16243   0.02404
C          C       0.19531   0.16243   0.47596
C          C       0.30469   0.66243   0.02404
C          C       0.69531   0.66243   0.47596
C          C       0.19531   0.83757   0.47596
C          C       0.80469   0.83757   0.02404
C          C       0.69531   0.33757   0.47596
C          C       0.30469   0.33757   0.02404
C          C       0.82095   0.14447   0.00545
C          C       0.17905   0.14447   0.49456
C          C       0.32095   0.64447   0.00545
C          C       0.67905   0.64447   0.49456
C          C       0.17905   0.85553   0.49456
C          C       0.82095   0.85553   0.00545
C          C       0.67905   0.35553   0.49456
C          C       0.32095   0.35553   0.00545
C          C       0.79632   0.19962   0.17258
C          C       0.20368   0.19962   0.32742
C          C       0.29632   0.69962   0.17258
C          C       0.70368   0.69962   0.32742
C          C       0.20368   0.80038   0.32742
C          C       0.79632   0.80038   0.17258
C          C       0.70368   0.30038   0.32742
C          C       0.29632   0.30038   0.17258
C          C       0.78243   0.21464   0.19454
C          C       0.21757   0.21464   0.30546
C          C       0.28243   0.71464   0.19454
C          C       0.71757   0.71464   0.30546
C          C       0.21757   0.78536   0.30546
C          C       0.78243   0.78536   0.19454
C          C       0.71757   0.28536   0.30546
C          C       0.28243   0.28536   0.19454
C          C       0.76598   0.23255   0.22241
C          C       0.23402   0.23255   0.27759
C          C       0.26598   0.73255   0.22241
C          C       0.73402   0.73255   0.27759
C          C       0.23402   0.76745   0.27759
C          C       0.76598   0.76745   0.22241
C          C       0.73402   0.26745   0.27759
C          C       0.26598   0.26745   0.22241
C          C       0.74773   0.22252   0.26466
C          C       0.25227   0.22252   0.23534
C          C       0.24773   0.72252   0.26466
C          C       0.75227   0.72252   0.23534
C          C       0.25227   0.77748   0.23534
C          C       0.74773   0.77748   0.26466
C          C       0.75227   0.27748   0.23534
C          C       0.24773   0.27748   0.26466
C          C       0.98897   0.08505   0.24703
C          C       0.48897   0.58505   0.24703
C          C       0.51103   0.58505   0.25297
C          C       0.98897   0.91495   0.24703
C          C       0.51103   0.41495   0.25297
C          C       0.48897   0.41495   0.24703
C          C       0.98166   0.05719   0.24472
C          C       0.01834   0.05719   0.25528
C          C       0.48166   0.55719   0.24472
C          C       0.51834   0.55719   0.25528
C          C       0.01834   0.94281   0.25528
C          C       0.98166   0.94281   0.24472
C          C       0.51834   0.44281   0.25528
C          C       0.48166   0.44281   0.24472
C          C       0.95879   0.04864   0.23575
C          C       0.04121   0.04864   0.26425
C          C       0.45879   0.54864   0.23575
C          C       0.54121   0.54864   0.26425
C          C       0.04121   0.95136   0.26425
C          C       0.95879   0.95136   0.23575
C          C       0.54121   0.45136   0.26425
C          C       0.45879   0.45136   0.23575
C          C       0.93985   0.06917   0.21336
C          C       0.06015   0.06917   0.28664
C          C       0.43985   0.56917   0.21336
C          C       0.56015   0.56917   0.28664
C          C       0.06015   0.93083   0.28664
C          C       0.93985   0.93083   0.21336
C          C       0.56015   0.43083   0.28664
C          C       0.43985   0.43083   0.21336
C          C       0.91689   0.06831   0.07570
C          C       0.08311   0.06831   0.42430
C          C       0.41689   0.56831   0.07570
C          C       0.58311   0.56831   0.42430
C          C       0.08311   0.93169   0.42430
C          C       0.91689   0.93169   0.07570
C          C       0.58311   0.43169   0.42430
C          C       0.41689   0.43169   0.07570
C          C       0.89864   0.08659   0.06209
C          C       0.10136   0.08659   0.43790
C          C       0.39864   0.58659   0.06209
C          C       0.60136   0.58659   0.43790
C          C       0.10136   0.91341   0.43790
C          C       0.89864   0.91341   0.06209
C          C       0.60136   0.41341   0.43790
C          C       0.39864   0.41341   0.06209
C          C       0.90328   0.10615   0.18587
C          C       0.09672   0.10615   0.31413
C          C       0.40328   0.60615   0.18587
C          C       0.59672   0.60615   0.31413
C          C       0.09672   0.89385   0.31413
C          C       0.90328   0.89385   0.18587
C          C       0.59672   0.39385   0.31413
C          C       0.40328   0.39385   0.18587
C          C       0.92639   0.10758   0.31837
C          C       0.07361   0.10758   0.18163
C          C       0.42639   0.60758   0.31837
C          C       0.57361   0.60758   0.18163
C          C       0.07361   0.89242   0.18163
C          C       0.92639   0.89242   0.31837
C          C       0.57361   0.39242   0.18163
C          C       0.42639   0.39242   0.31837
C          C       0.94438   0.08916   0.33299
C          C       0.05562   0.08916   0.16701
C          C       0.44438   0.58916   0.33299
C          C       0.55562   0.58916   0.16701
C          C       0.05562   0.91084   0.16701
C          C       0.94438   0.91084   0.33299
C          C       0.55562   0.41084   0.16701
C          C       0.44438   0.41084   0.33299
N          N       0.88523   0.12449   0.18748
N          N       0.11477   0.12449   0.31252
N          N       0.38523   0.62449   0.18748
N          N       0.61477   0.62449   0.31252
N          N       0.11477   0.87551   0.31252
N          N       0.88523   0.87551   0.18748
N          N       0.61477   0.37551   0.31252
N          N       0.38523   0.37551   0.18748
C          C       0.86219   0.12545   0.08718
C          C       0.13781   0.12545   0.41282
C          C       0.36219   0.62545   0.08718
C          C       0.63781   0.62545   0.41282
C          C       0.13781   0.87455   0.41282
C          C       0.86219   0.87455   0.08718
C          C       0.63781   0.37455   0.41282
C          C       0.36219   0.37455   0.08718
C          C       0.26822   0.76005   0.20778
C          C       0.73178   0.76005   0.29222
C          C       0.76822   0.26005   0.20778
C          C       0.23178   0.26005   0.29222
C          C       0.73178   0.23995   0.29222
C          C       0.26822   0.23995   0.20778
C          C       0.23178   0.73995   0.29222
C          C       0.76822   0.73995   0.20778
O          O       0.87990   0.16526   0.34841
O          O       0.12010   0.16526   0.15159
O          O       0.37990   0.66526   0.34841
O          O       0.62010   0.66526   0.15159
O          O       0.12010   0.83474   0.15159
O          O       0.87990   0.83474   0.34841
O          O       0.62010   0.33474   0.15159
O          O       0.37990   0.33474   0.34841
C          C       0.88940   0.81354   0.46580
C          C       0.11060   0.81354   0.03420
C          C       0.38940   0.31354   0.46580
C          C       0.61060   0.31354   0.03420
C          C       0.11060   0.18646   0.03420
C          C       0.88940   0.18646   0.46580
C          C       0.61060   0.68646   0.03420
C          C       0.38940   0.68646   0.46580
H          H       0.34409   0.69800   0.35274
H          H       0.65591   0.69800   0.14726
H          H       0.15591   0.80200   0.14726
H          H       0.65591   0.30200   0.14726
H          H       0.84409   0.80200   0.35274
H          H       0.97813   0.10252   0.24432
H          H       0.08543   0.02051   0.35915
H          H       0.07217   0.02051   0.14251
H          H       0.74595   0.20111   0.27608
H          H       0.97813   0.89748   0.24432
H          H       0.52187   0.39748   0.25567
H          H       0.47813   0.39748   0.24432
H          H       0.99475   0.04190   0.25030
H          H       0.00525   0.95810   0.24970
H          H       0.34409   0.30200   0.35274
H          H       0.71441   0.66169   0.55776
H          H       0.21441   0.83831   0.55776
H          H       0.71441   0.33831   0.55776
H          H       0.18546   0.12968   0.59156
H          H       0.68546   0.62968   0.59156
H          H       0.68546   0.37032   0.59156
H          H       0.24595   0.70111   0.27608
H          H       0.75405   0.70111   0.22392
H          H       0.25405   0.79889   0.22392
H          H       0.74595   0.79889   0.27608
H          H       0.75405   0.29889   0.22392
H          H       0.24595   0.29889   0.27608
H          H       0.02187   0.10252   0.25567
H          H       0.47813   0.60252   0.24432
H          H       0.49475   0.54190   0.25030
H          H       0.50525   0.45810   0.24970
H          H       0.11882   0.08584   0.54160
H          H       0.93004   0.12323   0.40924
H          H       0.06996   0.12323   0.09076
H          H       0.43004   0.62323   0.40924
H          H       0.93004   0.87677   0.40924
H          H       0.96188   0.09015   0.43625
H          H       0.03812   0.09015   0.06375
H          H       0.53812   0.59015   0.06375
H          H       0.03812   0.90985   0.06375
H          H       0.96188   0.90985   0.43625
H          H       0.14493   0.11160   0.51468
H          H       0.64493   0.61160   0.51468
H          H       0.64493   0.38840   0.51468
H          H       0.71757   0.76789   0.32516
H          H       0.21757   0.26789   0.32516
H          H       0.78243   0.73211   0.17484
H          H       0.88653   0.79451   0.40247
H          H       0.90870   0.81663   0.53596
H          H       0.88014   0.81348   0.54756
H          H       0.11347   0.79451   0.09753
H          H       0.38653   0.29451   0.40247
H          H       0.40870   0.31663   0.53596
H          H       0.38014   0.31348   0.54756
H          H       0.61347   0.29451   0.09753
H          H       0.03415   0.00651   0.24382
H          H       0.46585   0.50651   0.25618
H          H       0.53415   0.50651   0.24382
H          H       0.96585   0.99349   0.25618
H          H       0.91457   0.02051   0.14085
H          H       0.92783   0.02051   0.35749
H          H       0.41509   0.52595   0.24950
H          H       0.92783   0.97949   0.35749
H          H       0.91457   0.97949   0.14085
H          H       0.58491   0.47405   0.25050
H          H       0.41509   0.47405   0.24950
H          H       0.58491   0.52595   0.25050
H          H       0.07217   0.97949   0.14251
H          H       0.08543   0.97949   0.35915
H          H       0.84409   0.19800   0.35274
H          H       0.15591   0.19800   0.14726
H          H       0.21441   0.16169   0.55776
H          H       0.18546   0.87032   0.59156
H          H       0.25405   0.20111   0.22392
H          H       0.52187   0.60252   0.25567
H          H       0.02187   0.89748   0.25567
H          H       0.08635   0.05335   0.51870
H          H       0.58635   0.55335   0.51870
H          H       0.08635   0.94665   0.51870
H          H       0.58635   0.44665   0.51870
H          H       0.61882   0.58584   0.54160
H          H       0.11882   0.91416   0.54160
H          H       0.61882   0.41416   0.54160
H          H       0.56996   0.62323   0.09076
H          H       0.06996   0.87677   0.09076
H          H       0.56996   0.37677   0.09076
H          H       0.43004   0.37677   0.40924
H          H       0.46188   0.59015   0.43625
H          H       0.53812   0.40985   0.06375
H          H       0.46188   0.40985   0.43625
H          H       0.14493   0.88840   0.51468
H          H       0.28243   0.76789   0.17484
H          H       0.78243   0.26789   0.17484
H          H       0.71757   0.23211   0.32516
H          H       0.28243   0.23211   0.17484
H          H       0.21757   0.73211   0.32516
H          H       0.11347   0.20549   0.09753
H          H       0.88014   0.18652   0.54756
H          H       0.90870   0.18337   0.53596
H          H       0.88653   0.20549   0.40247
H          H       0.61347   0.70549   0.09753
H          H       0.38014   0.68652   0.54756
H          H       0.40870   0.68337   0.53596
H          H       0.38653   0.70549   0.40247
H          H       0.28559   0.66169   0.94223
H          H       0.78559   0.83831   0.94223
H          H       0.28559   0.33831   0.94223
H          H       0.81454   0.12968   0.90846
H          H       0.91365   0.94665   0.98130
H          H       0.81454   0.87032   0.90846
H          H       0.31454   0.37032   0.90846
H          H       0.41365   0.44665   0.98130
H          H       0.88118   0.08584   0.95838
H          H       0.38118   0.58584   0.95838
H          H       0.38118   0.41416   0.95838
H          H       0.85507   0.11160   0.98532
H          H       0.35507   0.38840   0.98532
H          H       0.09130   0.81663   0.96404
H          H       0.11986   0.81348   0.95244
H          H       0.59130   0.31663   0.96404
H          H       0.61986   0.31348   0.95244
H          H       0.78559   0.16169   0.94223
H          H       0.31454   0.62968   0.90846
H          H       0.91365   0.05335   0.98130
H          H       0.41365   0.55335   0.98130
H          H       0.88118   0.91416   0.95838
H          H       0.35507   0.61160   0.98532
H          H       0.85507   0.88840   0.98532
H          H       0.11986   0.18652   0.95244
H          H       0.09130   0.18337   0.96404
H          H       0.61986   0.68652   0.95244
H          H       0.59130   0.68337   0.96404
C          C       0.01103   0.08505   0.75297
C          C       0.01103   0.91495   0.75297
C          C       0.92955   0.01309   0.74872
C          C       0.07045   0.01309   0.75128
C          C       0.95258   0.02177   0.74748
C          C       0.04742   0.02177   0.75252
C          C       0.45258   0.52177   0.74748
C          C       0.54742   0.52177   0.75252
C          C       0.04742   0.97823   0.75252
C          C       0.95258   0.97823   0.74748
C          C       0.54742   0.47823   0.75252
C          C       0.45258   0.47823   0.74748
C          C       0.42955   0.51309   0.74872
C          C       0.57045   0.51309   0.75128
C          C       0.07045   0.98691   0.75128
C          C       0.92955   0.98691   0.74872
C          C       0.57045   0.48691   0.75128
C          C       0.42955   0.48691   0.74872
C          C       0.84594   0.14534   0.61270
C          C       0.15406   0.14534   0.88730
C          C       0.34594   0.64534   0.61270
C          C       0.65406   0.64534   0.88730
C          C       0.15406   0.85466   0.88730
C          C       0.84594   0.85466   0.61270
C          C       0.65406   0.35466   0.88730
C          C       0.34594   0.35466   0.61270
C          C       0.85473   0.16488   0.74082
C          C       0.14527   0.16488   0.75918
C          C       0.35473   0.66488   0.74082
C          C       0.64527   0.66488   0.75918
C          C       0.14527   0.83512   0.75918
C          C       0.85473   0.83512   0.74082
C          C       0.64527   0.33512   0.75918
C          C       0.35473   0.33512   0.74082
C          C       0.83795   0.18296   0.75718
C          C       0.16205   0.18296   0.74282
C          C       0.33795   0.68296   0.75718
C          C       0.66205   0.68296   0.74282
C          C       0.16205   0.81704   0.74282
C          C       0.83795   0.81704   0.75718
C          C       0.66205   0.31704   0.74282
C          C       0.33795   0.31704   0.75718
C          C       0.81315   0.18162   0.64982
C          C       0.18685   0.18162   0.85018
C          C       0.31315   0.68162   0.64982
C          C       0.68685   0.68162   0.85018
C          C       0.18685   0.81838   0.85018
C          C       0.81315   0.81838   0.64982
C          C       0.68685   0.31838   0.85018
C          C       0.31315   0.31838   0.64982
C          C       0.80469   0.16243   0.52404
C          C       0.19531   0.16243   0.97596
C          C       0.30469   0.66243   0.52404
C          C       0.69531   0.66243   0.97596
C          C       0.19531   0.83757   0.97596
C          C       0.80469   0.83757   0.52404
C          C       0.69531   0.33757   0.97596
C          C       0.30469   0.33757   0.52404
C          C       0.82095   0.14447   0.50544
C          C       0.17905   0.14447   0.99456
C          C       0.32095   0.64447   0.50544
C          C       0.67905   0.64447   0.99456
C          C       0.17905   0.85553   0.99456
C          C       0.82095   0.85553   0.50544
C          C       0.67905   0.35553   0.99456
C          C       0.32095   0.35553   0.50544
C          C       0.79632   0.19962   0.67258
C          C       0.20368   0.19962   0.82742
C          C       0.29632   0.69962   0.67258
C          C       0.70368   0.69962   0.82742
C          C       0.20368   0.80038   0.82742
C          C       0.79632   0.80038   0.67258
C          C       0.70368   0.30038   0.82742
C          C       0.29632   0.30038   0.67258
C          C       0.78243   0.21464   0.69454
C          C       0.21757   0.21464   0.80546
C          C       0.28243   0.71464   0.69454
C          C       0.71757   0.71464   0.80546
C          C       0.21757   0.78536   0.80546
C          C       0.78243   0.78536   0.69454
C          C       0.71757   0.28536   0.80546
C          C       0.28243   0.28536   0.69454
C          C       0.76598   0.23255   0.72241
C          C       0.23402   0.23255   0.77759
C          C       0.26598   0.73255   0.72241
C          C       0.73402   0.73255   0.77759
C          C       0.23402   0.76745   0.77759
C          C       0.76598   0.76745   0.72241
C          C       0.73402   0.26745   0.77759
C          C       0.26598   0.26745   0.72241
C          C       0.74773   0.22252   0.76466
C          C       0.25227   0.22252   0.73534
C          C       0.24773   0.72252   0.76466
C          C       0.75227   0.72252   0.73534
C          C       0.25227   0.77748   0.73534
C          C       0.74773   0.77748   0.76466
C          C       0.75227   0.27748   0.73534
C          C       0.24773   0.27748   0.76466
C          C       0.98897   0.08505   0.74703
C          C       0.48897   0.58505   0.74703
C          C       0.51103   0.58505   0.75297
C          C       0.98897   0.91495   0.74703
C          C       0.51103   0.41495   0.75297
C          C       0.48897   0.41495   0.74703
C          C       0.98166   0.05719   0.74472
C          C       0.01834   0.05719   0.75528
C          C       0.48166   0.55719   0.74472
C          C       0.51834   0.55719   0.75528
C          C       0.01834   0.94281   0.75528
C          C       0.98166   0.94281   0.74472
C          C       0.51834   0.44281   0.75528
C          C       0.48166   0.44281   0.74472
C          C       0.95879   0.04864   0.73575
C          C       0.04121   0.04864   0.76425
C          C       0.45879   0.54864   0.73575
C          C       0.54121   0.54864   0.76425
C          C       0.04121   0.95136   0.76425
C          C       0.95879   0.95136   0.73575
C          C       0.54121   0.45136   0.76425
C          C       0.45879   0.45136   0.73575
C          C       0.93985   0.06917   0.71336
C          C       0.06015   0.06917   0.78664
C          C       0.43985   0.56917   0.71336
C          C       0.56015   0.56917   0.78664
C          C       0.06015   0.93083   0.78664
C          C       0.93985   0.93083   0.71336
C          C       0.56015   0.43083   0.78664
C          C       0.43985   0.43083   0.71336
C          C       0.91689   0.06831   0.57570
C          C       0.08311   0.06831   0.92430
C          C       0.41689   0.56831   0.57570
C          C       0.58311   0.56831   0.92430
C          C       0.08311   0.93169   0.92430
C          C       0.91689   0.93169   0.57570
C          C       0.58311   0.43169   0.92430
C          C       0.41689   0.43169   0.57570
C          C       0.89864   0.08659   0.56209
C          C       0.10136   0.08659   0.93791
C          C       0.39864   0.58659   0.56209
C          C       0.60136   0.58659   0.93791
C          C       0.10136   0.91341   0.93791
C          C       0.89864   0.91341   0.56209
C          C       0.60136   0.41341   0.93791
C          C       0.39864   0.41341   0.56209
C          C       0.90328   0.10615   0.68587
C          C       0.09672   0.10615   0.81413
C          C       0.40328   0.60615   0.68587
C          C       0.59672   0.60615   0.81413
C          C       0.09672   0.89385   0.81413
C          C       0.90328   0.89385   0.68587
C          C       0.59672   0.39385   0.81413
C          C       0.40328   0.39385   0.68587
C          C       0.92639   0.10758   0.81837
C          C       0.07361   0.10758   0.68163
C          C       0.42639   0.60758   0.81837
C          C       0.57361   0.60758   0.68163
C          C       0.07361   0.89242   0.68163
C          C       0.92639   0.89242   0.81837
C          C       0.57361   0.39242   0.68163
C          C       0.42639   0.39242   0.81837
C          C       0.94438   0.08916   0.83300
C          C       0.05562   0.08916   0.66700
C          C       0.44438   0.58916   0.83300
C          C       0.55562   0.58916   0.66700
C          C       0.05562   0.91084   0.66700
C          C       0.94438   0.91084   0.83300
C          C       0.55562   0.41084   0.66700
C          C       0.44438   0.41084   0.83300
N          N       0.88523   0.12449   0.68748
N          N       0.11477   0.12449   0.81252
N          N       0.38523   0.62449   0.68748
N          N       0.61477   0.62449   0.81252
N          N       0.11477   0.87551   0.81252
N          N       0.88523   0.87551   0.68748
N          N       0.61477   0.37551   0.81252
N          N       0.38523   0.37551   0.68748
C          C       0.86219   0.12545   0.58718
C          C       0.13781   0.12545   0.91282
C          C       0.36219   0.62545   0.58718
C          C       0.63781   0.62545   0.91282
C          C       0.13781   0.87455   0.91282
C          C       0.86219   0.87455   0.58718
C          C       0.63781   0.37455   0.91282
C          C       0.36219   0.37455   0.58718
C          C       0.26822   0.76005   0.70778
C          C       0.73178   0.76005   0.79222
C          C       0.76822   0.26005   0.70778
C          C       0.23178   0.26005   0.79222
C          C       0.73178   0.23995   0.79222
C          C       0.26822   0.23995   0.70778
C          C       0.23178   0.73995   0.79222
C          C       0.76822   0.73995   0.70778
O          O       0.87990   0.16526   0.84840
O          O       0.12010   0.16526   0.65159
O          O       0.37990   0.66526   0.84840
O          O       0.62010   0.66526   0.65159
O          O       0.12010   0.83474   0.65159
O          O       0.87990   0.83474   0.84840
O          O       0.62010   0.33474   0.65159
O          O       0.37990   0.33474   0.84840
C          C       0.88940   0.81354   0.96579
C          C       0.11060   0.81354   0.53421
C          C       0.38940   0.31354   0.96579
C          C       0.61060   0.31354   0.53421
C          C       0.11060   0.18646   0.53421
C          C       0.88940   0.18646   0.96579
C          C       0.61060   0.68646   0.53421
C          C       0.38940   0.68646   0.96579
H          H       0.46188   0.59015   0.93627
H          H       0.96585   0.99349   0.75618
H          H       0.46585   0.50651   0.75618
H          H       0.53415   0.50651   0.74382
H          H       0.03415   0.99349   0.74382
H          H       0.91457   0.02051   0.64085
H          H       0.92783   0.02051   0.85749
H          H       0.08543   0.02051   0.85915
H          H       0.07217   0.02051   0.64251
H          H       0.41509   0.52595   0.74950
H          H       0.58491   0.52595   0.75050
H          H       0.07217   0.97949   0.64251
H          H       0.08543   0.97949   0.85915
H          H       0.92783   0.97949   0.85749
H          H       0.91457   0.97949   0.64085
H          H       0.58491   0.47405   0.75050
H          H       0.41509   0.47405   0.74950
H          H       0.85507   0.11160   0.48532
H          H       0.35507   0.61160   0.48532
H          H       0.28243   0.76789   0.67484
H          H       0.78243   0.26789   0.67484
H          H       0.71757   0.23211   0.82516
H          H       0.21757   0.73211   0.82516
H          H       0.88653   0.79451   0.90246
H          H       0.11347   0.79451   0.59754
H          H       0.09130   0.81663   0.46404
H          H       0.11986   0.81348   0.45245
H          H       0.61347   0.29451   0.59754
H          H       0.59130   0.31663   0.46404
H          H       0.61986   0.31348   0.45245
H          H       0.88653   0.20549   0.90246
H          H       0.38653   0.29451   0.90246
H          H       0.11986   0.18652   0.45245
H          H       0.09130   0.18337   0.46404
H          H       0.11347   0.20549   0.59754
H          H       0.61986   0.68652   0.45245
H          H       0.59130   0.68337   0.46404
H          H       0.61347   0.70549   0.59754
H          H       0.15591   0.19800   0.64726
H          H       0.84409   0.80200   0.85274
H          H       0.65591   0.30200   0.64726
H          H       0.34409   0.30200   0.85274
H          H       0.78559   0.16169   0.44223
H          H       0.28559   0.66169   0.44223
H          H       0.81454   0.87032   0.40844
H          H       0.31454   0.37032   0.40844
H          H       0.75405   0.29889   0.72392
H          H       0.91365   0.94665   0.48130
H          H       0.41365   0.44665   0.48130
H          H       0.38118   0.58584   0.45838
H          H       0.06996   0.12324   0.59076
H          H       0.56996   0.62324   0.59076
H          H       0.93004   0.87676   0.90924
H          H       0.43004   0.37676   0.90924
H          H       0.03812   0.09015   0.56373
H          H       0.03812   0.90985   0.56373
H          H       0.53812   0.40985   0.56373
H          H       0.74595   0.20111   0.77608
H          H       0.25405   0.20111   0.72392
H          H       0.75405   0.70111   0.72392
H          H       0.25405   0.79889   0.72392
H          H       0.02187   0.10252   0.75567
H          H       0.47813   0.60252   0.74433
H          H       0.52187   0.60252   0.75567
H          H       0.02187   0.89748   0.75567
H          H       0.97813   0.89748   0.74433
H          H       0.52187   0.39748   0.75567
H          H       0.91365   0.05335   0.48130
H          H       0.41365   0.55335   0.48130
H          H       0.88118   0.08584   0.45838
H          H       0.88118   0.91416   0.45838
H          H       0.38118   0.41416   0.45838
H          H       0.93004   0.12324   0.90924
H          H       0.43004   0.62324   0.90924
H          H       0.06996   0.87676   0.59076
H          H       0.56996   0.37676   0.59076
H          H       0.96188   0.09015   0.93627
H          H       0.53812   0.59015   0.56373
H          H       0.96188   0.90985   0.93627
H          H       0.46188   0.40985   0.93627
H          H       0.85507   0.88840   0.48532
H          H       0.35507   0.38840   0.48532
H          H       0.71757   0.76789   0.82516
H          H       0.21757   0.26789   0.82516
H          H       0.28243   0.23211   0.67484
H          H       0.78243   0.73211   0.67484
H          H       0.84409   0.19800   0.85274
H          H       0.34409   0.69800   0.85274
H          H       0.65591   0.69800   0.64726
H          H       0.15591   0.80200   0.64726
H          H       0.78559   0.83831   0.44223
H          H       0.28559   0.33831   0.44223
H          H       0.81454   0.12968   0.40844
H          H       0.31454   0.62968   0.40844
H          H       0.24595   0.70111   0.77608
H          H       0.74595   0.79889   0.77608
H          H       0.24595   0.29889   0.77608
H          H       0.97813   0.10252   0.74433
H          H       0.47813   0.39748   0.74433
H          H       0.99475   0.04190   0.75030
H          H       0.49475   0.54190   0.75030
H          H       0.00525   0.95810   0.74970
H          H       0.50525   0.45810   0.74970
H          H       0.38653   0.70549   0.90246
H          H       0.14493   0.88840   0.01468
H          H       0.64493   0.38840   0.01468
H          H       0.90870   0.81663   0.03595
H          H       0.88014   0.81348   0.04755
H          H       0.88014   0.18652   0.04755
H          H       0.90870   0.18337   0.03595
H          H       0.40870   0.31663   0.03595
H          H       0.38014   0.31348   0.04755
H          H       0.21441   0.16169   0.05776
H          H       0.71441   0.66169   0.05776
H          H       0.21441   0.83831   0.05776
H          H       0.68546   0.62968   0.09156
H          H       0.18546   0.87032   0.09156
H          H       0.68546   0.37032   0.09156
H          H       0.08635   0.05335   0.01870
H          H       0.58635   0.55335   0.01870
H          H       0.11882   0.91416   0.04162
H          H       0.61882   0.41416   0.04162
H          H       0.08635   0.94665   0.01870
H          H       0.58635   0.44665   0.01870
H          H       0.11882   0.08584   0.04162
H          H       0.61882   0.58584   0.04162
H          H       0.14493   0.11160   0.01468
H          H       0.64493   0.61160   0.01468
H          H       0.71441   0.33831   0.05776
H          H       0.18546   0.12968   0.09156
H          H       0.38014   0.68652   0.04755
H          H       0.40870   0.68337   0.03595
