data_crystal

_cell_length_a    45.52000
_cell_length_b    45.52000
_cell_length_c    9.58880
_cell_angle_alpha 90.00000
_cell_angle_beta  90.00000
_cell_angle_gamma 120.00000

_space_group_name_Hall 'P 1'
_space_group_name_H-M_alt 'P 1'

loop_
_symmetry_equiv_pos_as_xyz
 'x,y,z'

loop_
_atom_site_label
_atom_site_type_symbol
_atom_site_fract_x
_atom_site_fract_y
_atom_site_fract_z
N          N       0.36536   0.67609   0.08070
N          N       0.32391   0.68927   0.08070
N          N       0.31073   0.63464   0.08070
C          C       0.34281   0.64395   0.08138
C          C       0.35605   0.69886   0.08138
C          C       0.30114   0.65719   0.08138
C          C       0.35314   0.61959   0.06432
C          C       0.38041   0.73355   0.06432
C          C       0.26645   0.64686   0.06432
C          C       0.38309   0.62536   0.11749
C          C       0.37464   0.75773   0.11749
C          C       0.24227   0.61691   0.11749
C          C       0.39436   0.60389   0.08788
C          C       0.39611   0.79047   0.08788
C          C       0.20953   0.60564   0.08788
C          C       0.37617   0.57667   0.00225
C          C       0.42333   0.79950   0.00225
C          C       0.20050   0.62383   0.00225
C          C       0.34582   0.57049   0.45244
C          C       0.42951   0.77533   0.45244
C          C       0.22467   0.65418   0.45244
C          C       0.33427   0.59159   0.48419
C          C       0.40841   0.74268   0.48419
C          C       0.25732   0.66573   0.48419
C          C       0.38957   0.55511   0.45778
C          C       0.44489   0.83446   0.45778
C          C       0.16554   0.61043   0.45778
N          N       0.42280   0.57464   0.40548
N          N       0.42536   0.84816   0.40548
N          N       0.15184   0.57720   0.40548
C          C       0.44357   0.56087   0.39352
C          C       0.43913   0.88270   0.39352
C          C       0.11730   0.55643   0.39352
C          C       0.47244   0.57726   0.31689
C          C       0.42274   0.89518   0.31689
C          C       0.10482   0.52756   0.31689
C          C       0.55562   0.46384   0.40398
C          C       0.53616   0.09178   0.40398
C          C       0.90822   0.44438   0.40398
H          H       0.47947   0.60056   0.26972
H          H       0.39944   0.87891   0.26972
H          H       0.12109   0.52053   0.26972
H          H       0.39801   0.64675   0.17989
H          H       0.35325   0.75126   0.17989
H          H       0.24874   0.60199   0.17989
H          H       0.41786   0.60917   0.12705
H          H       0.39083   0.80869   0.12705
H          H       0.19131   0.58214   0.12705
H          H       0.33131   0.54967   0.38640
H          H       0.45033   0.78164   0.38640
H          H       0.21836   0.66869   0.38640
H          H       0.31124   0.58677   0.44076
H          H       0.41323   0.72447   0.44076
H          H       0.27553   0.68876   0.44076
C          C       0.50936   0.46887   0.32570
C          C       0.53113   0.04049   0.32570
C          C       0.95951   0.49064   0.32570
C          C       0.53780   0.48015   0.40560
C          C       0.51985   0.05765   0.40560
C          C       0.94235   0.46220   0.40560
C          C       0.49814   0.44034   0.24755
C          C       0.55966   0.05780   0.24755
C          C       0.94220   0.50186   0.24755
H          H       0.47612   0.43119   0.18640
H          H       0.56881   0.04493   0.18640
H          H       0.95507   0.52388   0.18640
H          H       0.54614   0.50160   0.46996
H          H       0.49840   0.04454   0.46996
H          H       0.95546   0.45386   0.46996
H          H       0.58465   0.15353   0.04895
H          H       0.84647   0.43112   0.04895
H          H       0.56888   0.41535   0.04895
C          C       0.50381   0.51816   0.33224
C          C       0.48184   0.98565   0.33224
C          C       0.01435   0.49619   0.33224
N          N       0.63372   0.31669   0.39528
N          N       0.68331   0.31703   0.39528
N          N       0.68297   0.36628   0.39528
C          C       0.64998   0.34968   0.39484
C          C       0.65032   0.30030   0.39484
C          C       0.69970   0.35002   0.39484
C          C       0.63204   0.36738   0.40291
C          C       0.63262   0.26466   0.40291
C          C       0.73534   0.36796   0.40291
C          C       0.60689   0.35802   0.00015
C          C       0.64198   0.24887   0.00015
C          C       0.75113   0.39311   0.00015
C          C       0.59117   0.37604   0.01460
C          C       0.62396   0.21513   0.01460
C          C       0.78487   0.40883   0.01460
C          C       0.59976   0.40326   0.42970
C          C       0.59674   0.19650   0.42970
C          C       0.80350   0.40024   0.42970
C          C       0.62392   0.41158   0.32740
C          C       0.58842   0.21234   0.32740
C          C       0.78766   0.37608   0.32740
C          C       0.64048   0.39426   0.31664
C          C       0.60574   0.24622   0.31664
C          C       0.75378   0.35952   0.31664
C          C       0.58248   0.42256   0.44882
C          C       0.57744   0.15992   0.44882
C          C       0.84008   0.41752   0.44882
N          N       0.55909   0.41558   0.33719
N          N       0.58442   0.14351   0.33719
N          N       0.85649   0.44091   0.33719
C          C       0.54335   0.43452   0.32814
C          C       0.56548   0.10883   0.32814
C          C       0.89117   0.45665   0.32814
C          C       0.51499   0.42328   0.24872
C          C       0.57672   0.09171   0.24872
C          C       0.90829   0.48501   0.24872
C          C       0.43445   0.53044   0.45454
C          C       0.46956   0.90401   0.45454
C          C       0.09599   0.56555   0.45454
H          H       0.50567   0.40100   0.18932
H          H       0.59900   0.10467   0.18932
H          H       0.89533   0.49433   0.18932
H          H       0.60014   0.33738   0.06807
H          H       0.66262   0.26276   0.06807
H          H       0.73724   0.39986   0.06807
H          H       0.57233   0.36874   0.09274
H          H       0.63126   0.20359   0.09274
H          H       0.79641   0.42767   0.09274
H          H       0.63030   0.43155   0.25641
H          H       0.56845   0.19875   0.25641
H          H       0.80125   0.36970   0.25641
H          H       0.65951   0.40149   0.23942
H          H       0.59851   0.25802   0.23942
H          H       0.74198   0.34049   0.23942
C          C       0.48298   0.53282   0.35420
C          C       0.46718   0.95016   0.35420
C          C       0.04984   0.51702   0.35420
C          C       0.45435   0.51669   0.43372
C          C       0.48331   0.93766   0.43372
C          C       0.06234   0.54565   0.43372
C          C       0.49199   0.56340   0.29745
C          C       0.43660   0.92859   0.29745
C          C       0.07141   0.50801   0.29745
H          H       0.51394   0.57637   0.23587
H          H       0.42363   0.93757   0.23587
H          H       0.06243   0.48606   0.23587
H          H       0.44777   0.49354   0.48047
H          H       0.50646   0.95423   0.48047
H          H       0.04577   0.55223   0.48047
H          H       0.46126   0.83546   0.37270
H          H       0.16454   0.62580   0.37270
H          H       0.37420   0.53874   0.37270
N          N       0.49057   0.48499   0.32909
N          N       0.51501   0.00558   0.32909
N          N       0.99442   0.50943   0.32909
O          O       0.53290   0.53598   0.31344
O          O       0.46402   0.99692   0.31344
O          O       0.00308   0.46710   0.31344
H          H       0.46536   0.47031   0.32099
H          H       0.52969   0.99505   0.32099
H          H       0.00495   0.53464   0.32099
C          C       0.38924   0.53384   0.07808
C          C       0.46616   0.85540   0.07808
C          C       0.14460   0.61076   0.07808
C          C       0.40206   0.51143   0.03017
C          C       0.48857   0.89063   0.03017
C          C       0.10937   0.59794   0.03017
O          O       0.40528   0.49576   0.15027
O          O       0.50424   0.90952   0.15027
O          O       0.09048   0.59472   0.15027
C          C       0.39241   0.46192   0.12990
C          C       0.53808   0.93049   0.12990
C          C       0.06951   0.60759   0.12990
C          C       0.35860   0.44225   0.19446
C          C       0.55775   0.91635   0.19446
C          C       0.08365   0.64140   0.19446
Cl         Cl      0.32868   0.44582   0.09639
Cl         Cl      0.55418   0.88286   0.09639
Cl         Cl      0.11714   0.67132   0.09639
H          H       0.42978   0.59694   0.35757
H          H       0.40306   0.83284   0.35757
H          H       0.16716   0.57022   0.35757
H          H       0.36414   0.51898   0.11942
H          H       0.48102   0.84516   0.11942
H          H       0.15484   0.63586   0.11942
H          H       0.40506   0.54976   0.16224
H          H       0.45024   0.85530   0.16224
H          H       0.14470   0.59494   0.16224
H          H       0.40868   0.45511   0.18516
H          H       0.54489   0.95357   0.18516
H          H       0.04643   0.59132   0.18516
H          H       0.39207   0.45469   0.01908
H          H       0.54531   0.93738   0.01908
H          H       0.06262   0.60793   0.01908
H          H       0.35871   0.45033   0.30286
H          H       0.54967   0.90838   0.30286
H          H       0.09162   0.64129   0.30286
H          H       0.35160   0.41619   0.19712
H          H       0.58381   0.93541   0.19712
H          H       0.06459   0.64840   0.19712
C          C       0.60598   0.45937   0.45461
C          C       0.54063   0.14661   0.45461
C          C       0.85339   0.39402   0.45461
C          C       0.58789   0.47857   0.48165
C          C       0.52143   0.10932   0.48165
C          C       0.89068   0.41211   0.48165
O          O       0.60607   0.51172   0.43935
O          O       0.48828   0.09435   0.43935
O          O       0.90565   0.39393   0.43935
C          C       0.63853   0.52902   0.48843
C          C       0.47098   0.10951   0.48843
C          C       0.89049   0.36147   0.48843
C          C       0.64127   0.53373   0.14544
C          C       0.46627   0.10754   0.14544
C          C       0.89246   0.35873   0.14544
Cl         Cl      0.68271   0.56103   0.18939
Cl         Cl      0.43897   0.12168   0.18939
Cl         Cl      0.87832   0.31729   0.18939
H          H       0.38413   0.49432   0.45330
H          H       0.50568   0.88981   0.45330
H          H       0.11019   0.61587   0.45330
H          H       0.58218   0.47733   0.09470
H          H       0.52267   0.10485   0.09470
H          H       0.89515   0.41782   0.09470
H          H       0.64964   0.55363   0.44171
H          H       0.44637   0.09601   0.44171
H          H       0.90399   0.35036   0.44171
H          H       0.65332   0.51837   0.45139
H          H       0.48163   0.13495   0.45139
H          H       0.86505   0.34668   0.45139
H          H       0.63354   0.51023   0.19761
H          H       0.48977   0.12331   0.19761
H          H       0.87669   0.36646   0.19761
H          H       0.62598   0.54393   0.18124
H          H       0.45607   0.08205   0.18124
H          H       0.91795   0.37402   0.18124
H          H       0.61893   0.46748   0.35359
H          H       0.53252   0.15145   0.35359
H          H       0.84855   0.38107   0.35359
H          H       0.62407   0.46464   0.03866
H          H       0.53536   0.15943   0.03866
H          H       0.84057   0.37593   0.03866
H          H       0.54923   0.39343   0.28409
H          H       0.60657   0.15580   0.28409
H          H       0.84420   0.45077   0.28409
N          N       0.36536   0.67609   0.58069
N          N       0.32391   0.68927   0.58069
N          N       0.31073   0.63464   0.58069
C          C       0.34281   0.64395   0.58138
C          C       0.35605   0.69886   0.58138
C          C       0.30114   0.65719   0.58138
C          C       0.35314   0.61959   0.56432
C          C       0.38041   0.73355   0.56432
C          C       0.26645   0.64686   0.56432
C          C       0.38309   0.62536   0.61748
C          C       0.37464   0.75773   0.61748
C          C       0.24227   0.61691   0.61748
C          C       0.39436   0.60389   0.58788
C          C       0.39611   0.79047   0.58788
C          C       0.20953   0.60564   0.58788
C          C       0.37617   0.57667   0.50225
C          C       0.42333   0.79950   0.50225
C          C       0.20050   0.62383   0.50225
C          C       0.34582   0.57049   0.95245
C          C       0.42951   0.77533   0.95245
C          C       0.22467   0.65418   0.95245
C          C       0.33427   0.59159   0.98420
C          C       0.40841   0.74268   0.98420
C          C       0.25732   0.66573   0.98420
C          C       0.38957   0.55511   0.95778
C          C       0.44489   0.83446   0.95778
C          C       0.16554   0.61043   0.95778
N          N       0.42280   0.57464   0.90548
N          N       0.42536   0.84816   0.90548
N          N       0.15184   0.57720   0.90548
C          C       0.44357   0.56087   0.89351
C          C       0.43913   0.88270   0.89351
C          C       0.11730   0.55643   0.89351
C          C       0.47244   0.57726   0.81689
C          C       0.42274   0.89518   0.81689
C          C       0.10482   0.52756   0.81689
C          C       0.55562   0.46384   0.90399
C          C       0.53616   0.09178   0.90399
C          C       0.90822   0.44438   0.90399
H          H       0.47947   0.60056   0.76972
H          H       0.39944   0.87891   0.76972
H          H       0.12109   0.52053   0.76972
H          H       0.39801   0.64675   0.67989
H          H       0.35325   0.75126   0.67989
H          H       0.24874   0.60199   0.67989
H          H       0.41786   0.60917   0.62705
H          H       0.39083   0.80869   0.62705
H          H       0.19131   0.58214   0.62705
H          H       0.33131   0.54967   0.88640
H          H       0.45033   0.78164   0.88640
H          H       0.21836   0.66869   0.88640
H          H       0.31124   0.58677   0.94076
H          H       0.41323   0.72447   0.94076
H          H       0.27553   0.68876   0.94076
C          C       0.50936   0.46887   0.82570
C          C       0.53113   0.04049   0.82570
C          C       0.95951   0.49064   0.82570
C          C       0.53780   0.48015   0.90560
C          C       0.51985   0.05765   0.90560
C          C       0.94235   0.46220   0.90560
C          C       0.49814   0.44034   0.74755
C          C       0.55966   0.05780   0.74755
C          C       0.94220   0.50186   0.74755
H          H       0.47612   0.43119   0.68640
H          H       0.56881   0.04493   0.68640
H          H       0.95507   0.52388   0.68640
H          H       0.54614   0.50160   0.96996
H          H       0.49840   0.04454   0.96996
H          H       0.95546   0.45386   0.96996
H          H       0.58465   0.15353   0.54895
H          H       0.84647   0.43112   0.54895
H          H       0.56888   0.41535   0.54895
C          C       0.50381   0.51816   0.83224
C          C       0.48184   0.98565   0.83224
C          C       0.01435   0.49619   0.83224
N          N       0.63372   0.31669   0.89528
N          N       0.68331   0.31703   0.89528
N          N       0.68297   0.36628   0.89528
C          C       0.64998   0.34968   0.89484
C          C       0.65032   0.30030   0.89484
C          C       0.69970   0.35002   0.89484
C          C       0.63204   0.36738   0.90291
C          C       0.63262   0.26466   0.90291
C          C       0.73534   0.36796   0.90291
C          C       0.60689   0.35802   0.50015
C          C       0.64198   0.24887   0.50015
C          C       0.75113   0.39311   0.50015
C          C       0.59117   0.37604   0.51460
C          C       0.62396   0.21513   0.51460
C          C       0.78487   0.40883   0.51460
C          C       0.59976   0.40326   0.92970
C          C       0.59674   0.19650   0.92970
C          C       0.80350   0.40024   0.92970
C          C       0.62392   0.41158   0.82740
C          C       0.58842   0.21234   0.82740
C          C       0.78766   0.37608   0.82740
C          C       0.64048   0.39426   0.81664
C          C       0.60574   0.24622   0.81664
C          C       0.75378   0.35952   0.81664
C          C       0.58248   0.42256   0.94883
C          C       0.57744   0.15992   0.94883
C          C       0.84008   0.41752   0.94883
N          N       0.55909   0.41558   0.83719
N          N       0.58442   0.14351   0.83719
N          N       0.85649   0.44091   0.83719
C          C       0.54335   0.43452   0.82814
C          C       0.56548   0.10883   0.82814
C          C       0.89117   0.45665   0.82814
C          C       0.51499   0.42328   0.74872
C          C       0.57672   0.09171   0.74872
C          C       0.90829   0.48501   0.74872
C          C       0.43445   0.53044   0.95454
C          C       0.46956   0.90401   0.95454
C          C       0.09599   0.56555   0.95454
H          H       0.50567   0.40100   0.68932
H          H       0.59900   0.10467   0.68932
H          H       0.89533   0.49433   0.68932
H          H       0.60014   0.33738   0.56807
H          H       0.66262   0.26276   0.56807
H          H       0.73724   0.39986   0.56807
H          H       0.57233   0.36874   0.59275
H          H       0.63126   0.20359   0.59275
H          H       0.79641   0.42767   0.59275
H          H       0.63030   0.43155   0.75641
H          H       0.56845   0.19875   0.75641
H          H       0.80125   0.36970   0.75641
H          H       0.65951   0.40149   0.73942
H          H       0.59851   0.25802   0.73942
H          H       0.74198   0.34049   0.73942
C          C       0.48298   0.53282   0.85420
C          C       0.46718   0.95016   0.85420
C          C       0.04984   0.51702   0.85420
C          C       0.45435   0.51669   0.93372
C          C       0.48331   0.93766   0.93372
C          C       0.06234   0.54565   0.93372
C          C       0.49199   0.56340   0.79745
C          C       0.43660   0.92859   0.79745
C          C       0.07141   0.50801   0.79745
H          H       0.51394   0.57637   0.73587
H          H       0.42363   0.93757   0.73587
H          H       0.06243   0.48606   0.73587
H          H       0.44777   0.49354   0.98047
H          H       0.50646   0.95423   0.98047
H          H       0.04577   0.55223   0.98047
H          H       0.46126   0.83546   0.87270
H          H       0.16454   0.62580   0.87270
H          H       0.37420   0.53874   0.87270
N          N       0.49057   0.48499   0.82909
N          N       0.51501   0.00558   0.82909
N          N       0.99442   0.50943   0.82909
O          O       0.53290   0.53598   0.81344
O          O       0.46402   0.99692   0.81344
O          O       0.00308   0.46710   0.81344
H          H       0.46536   0.47031   0.82098
H          H       0.52969   0.99505   0.82098
H          H       0.00495   0.53464   0.82098
C          C       0.38924   0.53384   0.57808
C          C       0.46616   0.85540   0.57808
C          C       0.14460   0.61076   0.57808
C          C       0.40206   0.51143   0.53016
C          C       0.48857   0.89063   0.53016
C          C       0.10937   0.59794   0.53016
O          O       0.40528   0.49576   0.65026
O          O       0.50424   0.90952   0.65026
O          O       0.09048   0.59472   0.65026
C          C       0.39241   0.46192   0.62989
C          C       0.53808   0.93049   0.62989
C          C       0.06951   0.60759   0.62989
C          C       0.35860   0.44225   0.69446
C          C       0.55775   0.91635   0.69446
C          C       0.08365   0.64140   0.69446
Cl         Cl      0.32868   0.44582   0.59640
Cl         Cl      0.55418   0.88286   0.59640
Cl         Cl      0.11714   0.67132   0.59640
H          H       0.42978   0.59694   0.85757
H          H       0.40306   0.83284   0.85757
H          H       0.16716   0.57022   0.85757
H          H       0.36414   0.51898   0.61942
H          H       0.48102   0.84516   0.61942
H          H       0.15484   0.63586   0.61942
H          H       0.40506   0.54976   0.66224
H          H       0.45024   0.85530   0.66224
H          H       0.14470   0.59494   0.66224
H          H       0.40868   0.45511   0.68516
H          H       0.54489   0.95357   0.68516
H          H       0.04643   0.59132   0.68516
H          H       0.39207   0.45469   0.51908
H          H       0.54531   0.93738   0.51908
H          H       0.06262   0.60793   0.51908
H          H       0.35871   0.45033   0.80286
H          H       0.54967   0.90838   0.80286
H          H       0.09162   0.64129   0.80286
H          H       0.35160   0.41619   0.69712
H          H       0.58381   0.93541   0.69712
H          H       0.06459   0.64840   0.69712
C          C       0.60598   0.45937   0.95461
C          C       0.54063   0.14661   0.95461
C          C       0.85339   0.39402   0.95461
C          C       0.58789   0.47857   0.98165
C          C       0.52143   0.10932   0.98165
C          C       0.89068   0.41211   0.98165
O          O       0.60607   0.51172   0.93935
O          O       0.48828   0.09435   0.93935
O          O       0.90565   0.39393   0.93935
C          C       0.63853   0.52902   0.98842
C          C       0.47098   0.10951   0.98842
C          C       0.89049   0.36147   0.98842
C          C       0.64127   0.53373   0.64544
C          C       0.46627   0.10754   0.64544
C          C       0.89246   0.35873   0.64544
Cl         Cl      0.68271   0.56103   0.68939
Cl         Cl      0.43897   0.12168   0.68939
Cl         Cl      0.87832   0.31729   0.68939
H          H       0.38413   0.49432   0.95330
H          H       0.50568   0.88981   0.95330
H          H       0.11019   0.61587   0.95330
H          H       0.58218   0.47733   0.59470
H          H       0.52267   0.10485   0.59470
H          H       0.89515   0.41782   0.59470
H          H       0.64964   0.55363   0.94172
H          H       0.44637   0.09601   0.94172
H          H       0.90399   0.35036   0.94172
H          H       0.65332   0.51837   0.95139
H          H       0.48163   0.13495   0.95139
H          H       0.86505   0.34668   0.95139
H          H       0.63354   0.51023   0.69760
H          H       0.48977   0.12331   0.69760
H          H       0.87669   0.36646   0.69760
H          H       0.62598   0.54393   0.68124
H          H       0.45607   0.08205   0.68124
H          H       0.91795   0.37402   0.68124
H          H       0.61893   0.46748   0.85359
H          H       0.53252   0.15145   0.85359
H          H       0.84855   0.38107   0.85359
H          H       0.62407   0.46464   0.53865
H          H       0.53536   0.15943   0.53865
H          H       0.84057   0.37593   0.53865
H          H       0.54923   0.39343   0.78409
H          H       0.60657   0.15580   0.78409
H          H       0.84420   0.45077   0.78409
