data_crystal

_cell_length_a    45.65800
_cell_length_b    45.65800
_cell_length_c    6.95320
_cell_angle_alpha 90.00000
_cell_angle_beta  90.00000
_cell_angle_gamma 120.00000

_space_group_name_Hall 'P 1'
_space_group_name_H-M_alt 'P 1'

loop_
_symmetry_equiv_pos_as_xyz
 'x,y,z'

loop_
_atom_site_label
_atom_site_type_symbol
_atom_site_fract_x
_atom_site_fract_y
_atom_site_fract_z
N          N       0.36556   0.68221   0.40514
N          N       0.31779   0.68335   0.40514
N          N       0.31665   0.63444   0.40514
C          C       0.34900   0.64985   0.40516
C          C       0.35015   0.69915   0.40516
C          C       0.30085   0.65100   0.40516
C          C       0.36603   0.63158   0.40433
C          C       0.36842   0.73445   0.40433
C          C       0.26555   0.63397   0.40433
C          C       0.39950   0.64742   0.41111
C          C       0.35258   0.75208   0.41111
C          C       0.24792   0.60050   0.41111
C          C       0.41555   0.63019   0.40953
C          C       0.36981   0.78536   0.40953
C          C       0.21464   0.58445   0.40953
C          C       0.39845   0.59675   0.40082
C          C       0.40325   0.80170   0.40082
C          C       0.19830   0.60155   0.40082
C          C       0.36509   0.58090   0.39422
C          C       0.41910   0.78419   0.39422
C          C       0.21581   0.63491   0.39422
C          C       0.34901   0.59810   0.39613
C          C       0.40190   0.75091   0.39613
C          C       0.24909   0.65099   0.39613
C          C       0.41486   0.57802   0.39771
C          C       0.42198   0.83684   0.39771
C          C       0.16316   0.58514   0.39771
N          N       0.44573   0.59199   0.40768
N          N       0.40801   0.85374   0.40768
N          N       0.14626   0.55427   0.40768
C          C       0.46389   0.57599   0.40457
C          C       0.42401   0.88790   0.40457
C          C       0.11210   0.53611   0.40457
C          C       0.49704   0.59402   0.42157
C          C       0.40598   0.90302   0.42157
C          C       0.09698   0.50296   0.42157
C          C       0.57552   0.48082   0.49019
C          C       0.51918   0.09470   0.49019
C          C       0.90530   0.42448   0.49019
H          H       0.50863   0.61964   0.43766
H          H       0.38036   0.88899   0.43766
H          H       0.11101   0.49137   0.43766
H          H       0.41338   0.67317   0.41776
H          H       0.32683   0.74021   0.41776
H          H       0.25979   0.58662   0.41776
H          H       0.44134   0.64308   0.41477
H          H       0.35692   0.79826   0.41477
H          H       0.20174   0.55866   0.41477
H          H       0.35141   0.55513   0.38734
H          H       0.44487   0.79628   0.38734
H          H       0.20372   0.64859   0.38734
H          H       0.32323   0.58512   0.39054
H          H       0.41488   0.73811   0.39054
H          H       0.26189   0.67677   0.39054
C          C       0.52671   0.48302   0.45292
C          C       0.51698   0.04369   0.45292
C          C       0.95631   0.47329   0.45292
C          C       0.55951   0.49810   0.49349
C          C       0.50190   0.06141   0.49349
C          C       0.93859   0.44049   0.49349
C          C       0.51010   0.45017   0.41684
C          C       0.54983   0.05993   0.41684
C          C       0.94007   0.48990   0.41684
H          H       0.48472   0.43800   0.38904
H          H       0.56200   0.04672   0.38904
H          H       0.95328   0.51528   0.38904
H          H       0.57268   0.52299   0.03332
H          H       0.47701   0.04969   0.03332
H          H       0.95031   0.42732   0.03332
H          H       0.53526   0.15664   0.42574
H          H       0.84336   0.37862   0.42574
H          H       0.62138   0.46474   0.42574
C          C       0.52089   0.53064   0.39370
C          C       0.46936   0.99025   0.39370
C          C       0.00975   0.47911   0.39370
N          N       0.63477   0.32144   0.43176
N          N       0.67856   0.31333   0.43176
N          N       0.68667   0.36523   0.43176
C          C       0.65468   0.35349   0.43175
C          C       0.64651   0.30119   0.43175
C          C       0.69881   0.34532   0.43175
C          C       0.64166   0.37540   0.43218
C          C       0.62460   0.26626   0.43218
C          C       0.73374   0.35834   0.43218
C          C       0.60858   0.36337   0.43913
C          C       0.63663   0.24521   0.43913
C          C       0.75479   0.39142   0.43913
C          C       0.59631   0.38403   0.44017
C          C       0.61597   0.21228   0.44017
C          C       0.78772   0.40369   0.44017
C          C       0.61687   0.41718   0.43396
C          C       0.58282   0.19969   0.43396
C          C       0.80031   0.38313   0.43396
C          C       0.64986   0.42922   0.42669
C          C       0.57078   0.22064   0.42669
C          C       0.77936   0.35014   0.42669
C          C       0.66216   0.40858   0.42595
C          C       0.59142   0.25358   0.42595
C          C       0.74642   0.33784   0.42595
C          C       0.60450   0.43950   0.43528
C          C       0.56050   0.16500   0.43528
C          C       0.83500   0.39550   0.43528
N          N       0.57405   0.42898   0.44334
N          N       0.57102   0.14507   0.44334
N          N       0.85493   0.42595   0.44334
C          C       0.55891   0.44800   0.44762
C          C       0.55200   0.11091   0.44762
C          C       0.88909   0.44109   0.44762
C          C       0.52607   0.43287   0.41391
C          C       0.56713   0.09320   0.41391
C          C       0.90680   0.47393   0.41391
C          C       0.44933   0.54285   0.38282
C          C       0.45715   0.90648   0.38282
C          C       0.09352   0.55067   0.38282
H          H       0.51285   0.40757   0.38390
H          H       0.59243   0.10528   0.38390
H          H       0.89472   0.48715   0.38390
H          H       0.59209   0.33796   0.44425
H          H       0.66204   0.25413   0.44425
H          H       0.74587   0.40791   0.44425
H          H       0.57073   0.37403   0.44592
H          H       0.62597   0.19670   0.44592
H          H       0.80330   0.42927   0.44592
H          H       0.66617   0.45469   0.42177
H          H       0.54531   0.21148   0.42177
H          H       0.78852   0.33383   0.42177
H          H       0.68775   0.41869   0.42029
H          H       0.58131   0.26906   0.42029
H          H       0.73094   0.31225   0.42029
C          C       0.50092   0.54592   0.39901
C          C       0.45408   0.95500   0.39901
C          C       0.04500   0.49908   0.39901
C          C       0.46758   0.52790   0.37968
C          C       0.47210   0.93968   0.37968
C          C       0.06032   0.53242   0.37968
C          C       0.51545   0.57919   0.41839
C          C       0.42081   0.93626   0.41839
C          C       0.06374   0.48455   0.41839
H          H       0.54107   0.59372   0.43274
H          H       0.40628   0.94735   0.43274
H          H       0.05265   0.45893   0.43274
H          H       0.45548   0.50242   0.35742
H          H       0.49758   0.95306   0.35742
H          H       0.04694   0.54452   0.35742
H          H       0.44769   0.84834   0.38699
H          H       0.15166   0.59935   0.38699
H          H       0.40065   0.55231   0.38699
N          N       0.50935   0.49997   0.45852
N          N       0.50003   0.00938   0.45852
N          N       0.99062   0.49065   0.45852
O          O       0.54786   0.54578   0.32915
O          O       0.45422   0.00208   0.32915
O          O       0.99792   0.45214   0.32915
H          H       0.48608   0.48729   0.01103
H          H       0.51271   0.99879   0.01103
H          H       0.00121   0.51392   0.01103
H          H       0.60056   0.49316   0.02607
H          H       0.50684   0.10740   0.02607
H          H       0.89260   0.39944   0.02607
H          H       0.42068   0.52721   0.36671
H          H       0.47279   0.89347   0.36671
H          H       0.10653   0.57932   0.36671
N          N       0.36556   0.68221   0.90514
N          N       0.31779   0.68335   0.90514
N          N       0.31665   0.63444   0.90514
C          C       0.34900   0.64985   0.90516
C          C       0.35015   0.69915   0.90516
C          C       0.30085   0.65100   0.90516
C          C       0.36603   0.63158   0.90433
C          C       0.36842   0.73445   0.90433
C          C       0.26555   0.63397   0.90433
C          C       0.39950   0.64742   0.91111
C          C       0.35258   0.75208   0.91111
C          C       0.24792   0.60050   0.91111
C          C       0.41555   0.63019   0.90953
C          C       0.36981   0.78536   0.90953
C          C       0.21464   0.58445   0.90953
C          C       0.39845   0.59675   0.90082
C          C       0.40325   0.80170   0.90082
C          C       0.19830   0.60155   0.90082
C          C       0.36509   0.58090   0.89422
C          C       0.41910   0.78419   0.89422
C          C       0.21581   0.63491   0.89422
C          C       0.34901   0.59810   0.89613
C          C       0.40190   0.75091   0.89613
C          C       0.24909   0.65099   0.89613
C          C       0.41486   0.57802   0.89771
C          C       0.42198   0.83684   0.89771
C          C       0.16316   0.58514   0.89771
N          N       0.44573   0.59199   0.90768
N          N       0.40801   0.85374   0.90768
N          N       0.14626   0.55427   0.90768
C          C       0.46389   0.57599   0.90456
C          C       0.42401   0.88790   0.90456
C          C       0.11210   0.53611   0.90456
C          C       0.49704   0.59402   0.92157
C          C       0.40598   0.90302   0.92157
C          C       0.09698   0.50296   0.92157
C          C       0.57552   0.48082   0.99019
C          C       0.51918   0.09470   0.99019
C          C       0.90530   0.42448   0.99019
H          H       0.50863   0.61964   0.93766
H          H       0.38036   0.88899   0.93766
H          H       0.11101   0.49137   0.93766
H          H       0.41338   0.67317   0.91775
H          H       0.32683   0.74021   0.91775
H          H       0.25979   0.58662   0.91775
H          H       0.44134   0.64308   0.91477
H          H       0.35692   0.79826   0.91477
H          H       0.20174   0.55866   0.91477
H          H       0.35141   0.55513   0.88735
H          H       0.44487   0.79628   0.88735
H          H       0.20372   0.64859   0.88735
H          H       0.32323   0.58512   0.89054
H          H       0.41488   0.73811   0.89054
H          H       0.26189   0.67677   0.89054
C          C       0.52671   0.48302   0.95292
C          C       0.51698   0.04369   0.95292
C          C       0.95631   0.47329   0.95292
C          C       0.55951   0.49810   0.99349
C          C       0.50190   0.06141   0.99349
C          C       0.93859   0.44049   0.99349
C          C       0.51010   0.45017   0.91684
C          C       0.54983   0.05993   0.91684
C          C       0.94007   0.48990   0.91684
H          H       0.48472   0.43800   0.88904
H          H       0.56200   0.04672   0.88904
H          H       0.95328   0.51528   0.88904
H          H       0.57268   0.52299   0.53332
H          H       0.47701   0.04969   0.53332
H          H       0.95031   0.42732   0.53332
H          H       0.53526   0.15664   0.92574
H          H       0.84336   0.37862   0.92574
H          H       0.62138   0.46474   0.92574
C          C       0.52089   0.53064   0.89370
C          C       0.46936   0.99025   0.89370
C          C       0.00975   0.47911   0.89370
N          N       0.63477   0.32144   0.93176
N          N       0.67856   0.31333   0.93176
N          N       0.68667   0.36523   0.93176
C          C       0.65468   0.35349   0.93175
C          C       0.64651   0.30119   0.93175
C          C       0.69881   0.34532   0.93175
C          C       0.64166   0.37540   0.93218
C          C       0.62460   0.26626   0.93218
C          C       0.73374   0.35834   0.93218
C          C       0.60858   0.36337   0.93914
C          C       0.63663   0.24521   0.93914
C          C       0.75479   0.39142   0.93914
C          C       0.59631   0.38403   0.94017
C          C       0.61597   0.21228   0.94017
C          C       0.78772   0.40369   0.94017
C          C       0.61687   0.41718   0.93396
C          C       0.58282   0.19969   0.93396
C          C       0.80031   0.38313   0.93396
C          C       0.64986   0.42922   0.92669
C          C       0.57078   0.22064   0.92669
C          C       0.77936   0.35014   0.92669
C          C       0.66216   0.40858   0.92595
C          C       0.59142   0.25358   0.92595
C          C       0.74642   0.33784   0.92595
C          C       0.60450   0.43950   0.93528
C          C       0.56050   0.16500   0.93528
C          C       0.83500   0.39550   0.93528
N          N       0.57405   0.42898   0.94334
N          N       0.57102   0.14507   0.94334
N          N       0.85493   0.42595   0.94334
C          C       0.55891   0.44800   0.94762
C          C       0.55200   0.11091   0.94762
C          C       0.88909   0.44109   0.94762
C          C       0.52607   0.43287   0.91392
C          C       0.56713   0.09320   0.91392
C          C       0.90680   0.47393   0.91392
C          C       0.44933   0.54285   0.88282
C          C       0.45715   0.90648   0.88282
C          C       0.09352   0.55067   0.88282
H          H       0.51285   0.40757   0.88390
H          H       0.59243   0.10528   0.88390
H          H       0.89472   0.48715   0.88390
H          H       0.59209   0.33796   0.94425
H          H       0.66204   0.25413   0.94425
H          H       0.74587   0.40791   0.94425
H          H       0.57073   0.37403   0.94592
H          H       0.62597   0.19670   0.94592
H          H       0.80330   0.42927   0.94592
H          H       0.66617   0.45469   0.92177
H          H       0.54531   0.21148   0.92177
H          H       0.78852   0.33383   0.92177
H          H       0.68775   0.41869   0.92029
H          H       0.58131   0.26906   0.92029
H          H       0.73094   0.31225   0.92029
C          C       0.50092   0.54592   0.89901
C          C       0.45408   0.95500   0.89901
C          C       0.04500   0.49908   0.89901
C          C       0.46758   0.52790   0.87968
C          C       0.47210   0.93968   0.87968
C          C       0.06032   0.53242   0.87968
C          C       0.51545   0.57919   0.91839
C          C       0.42081   0.93626   0.91839
C          C       0.06374   0.48455   0.91839
H          H       0.54107   0.59372   0.93274
H          H       0.40628   0.94735   0.93274
H          H       0.05265   0.45893   0.93274
H          H       0.45548   0.50242   0.85742
H          H       0.49758   0.95306   0.85742
H          H       0.04694   0.54452   0.85742
H          H       0.44769   0.84834   0.88699
H          H       0.15166   0.59935   0.88699
H          H       0.40065   0.55231   0.88699
N          N       0.50935   0.49997   0.95852
N          N       0.50003   0.00938   0.95852
N          N       0.99062   0.49065   0.95852
O          O       0.54786   0.54578   0.82915
O          O       0.45422   0.00208   0.82915
O          O       0.99792   0.45214   0.82915
H          H       0.48608   0.48729   0.51103
H          H       0.51271   0.99879   0.51103
H          H       0.00121   0.51392   0.51103
H          H       0.60056   0.49316   0.52607
H          H       0.50684   0.10740   0.52607
H          H       0.89260   0.39944   0.52607
H          H       0.42068   0.52721   0.86671
H          H       0.47279   0.89347   0.86671
H          H       0.10653   0.57932   0.86671
