data_crystal

_cell_length_a    42.82240
_cell_length_b    43.55670
_cell_length_c    11.30300
_cell_angle_alpha 90.00000
_cell_angle_beta  90.00000
_cell_angle_gamma 120.00000

_space_group_name_Hall 'P 1'
_space_group_name_H-M_alt 'P 1'

loop_
_symmetry_equiv_pos_as_xyz
 'x,y,z'

loop_
_atom_site_label
_atom_site_type_symbol
_atom_site_fract_x
_atom_site_fract_y
_atom_site_fract_z
C          C       0.49130   0.57498   0.33498
C          C       0.49235   0.55182   0.41772
C          C       0.51355   0.53660   0.39441
C          C       0.53200   0.54293   0.28614
C          C       0.53194   0.56850   0.20892
N          N       0.51284   0.58486   0.23802
C          C       0.46395   0.58577   0.33909
N          N       0.46195   0.60265   0.24755
C          C       0.43600   0.61406   0.23666
C          C       0.43327   0.63520   0.32453
C          C       0.40960   0.64829   0.31102
C          C       0.38758   0.63957   0.21013
C          C       0.38974   0.61759   0.12337
C          C       0.41425   0.60537   0.13600
C          C       0.65105   0.35015   0.38175
C          C       0.62905   0.31416   0.40817
H          H       0.47591   0.54465   0.49687
H          H       0.51454   0.51897   0.45948
H          H       0.54491   0.57354   0.12373
H          H       0.44487   0.57777   0.41087
H          H       0.45028   0.64220   0.40181
H          H       0.40839   0.66523   0.37922
H          H       0.37299   0.61056   0.04514
H          H       0.41595   0.58873   0.06846
C          C       0.44037   0.90512   0.39690
C          C       0.46382   0.92587   0.48714
C          C       0.47862   0.96255   0.48296
C          C       0.47114   0.97820   0.38669
C          C       0.44839   0.95619   0.29624
N          N       0.43188   0.92029   0.30708
C          C       0.42654   0.86704   0.38778
N          N       0.40832   0.85147   0.29332
C          C       0.39445   0.81451   0.27218
C          C       0.36726   0.78914   0.34475
C          C       0.35292   0.75298   0.32206
C          C       0.36642   0.74180   0.22817
C          C       0.39424   0.76739   0.15709
C          C       0.40799   0.80357   0.17881
C          C       0.64416   0.29274   0.43089
C          C       0.68171   0.30786   0.43044
C          C       0.59976   0.40925   0.27776
C          C       0.59271   0.39276   0.38849
C          C       0.60905   0.37321   0.42214
C          C       0.63457   0.37172   0.34803
C          C       0.64304   0.38967   0.23923
C          C       0.62564   0.40815   0.20425
C          C       0.36276   0.65374   0.19641
C          C       0.37583   0.69007   0.21013
H          H       0.62108   0.52625   0.10503
H          H       0.59228   0.56165   0.14727
H          H       0.50963   0.47334   0.34507
H          H       0.62496   0.46985   0.15716
H          H       0.57475   0.39540   0.44930
H          H       0.60208   0.35938   0.00629
H          H       0.66231   0.38847   0.18003
H          H       0.63215   0.42134   0.11936
C          C       0.51091   0.08437   0.40320
C          C       0.47446   0.06163   0.37769
C          C       0.46183   0.02537   0.36721
C          C       0.48533   0.01206   0.38442
C          C       0.52198   0.03610   0.40661
N          N       0.53362   0.07135   0.41435
C          C       0.52645   0.12272   0.42079
N          N       0.56066   0.14110   0.44559
C          C       0.58008   0.17918   0.44700
C          C       0.60473   0.19786   0.03749
C          C       0.62540   0.23496   0.03425
C          C       0.62076   0.25387   0.44153
C          C       0.59498   0.23515   0.35361
C          C       0.57504   0.19819   0.35579
C          C       0.35235   0.70355   0.20763
C          C       0.31545   0.68048   0.19084
H          H       0.45616   0.07175   0.36735
H          H       0.43347   0.00750   0.35032
H          H       0.54065   0.02645   0.41791
H          H       0.51006   0.13517   0.41084
H          H       0.60801   0.18351   0.10983
H          H       0.64503   0.24894   0.10308
H          H       0.59143   0.24919   0.28046
H          H       0.55633   0.18425   0.28452
C          C       0.91233   0.42250   0.26462
C          C       0.93655   0.41073   0.24063
C          C       0.97201   0.43555   0.20990
F          F       0.65240   0.66194   0.04471
F          F       0.60688   0.60828   0.49010
F          F       0.61842   0.62264   0.18465
O          O       0.52890   0.65715   0.23056
S          S       0.52432   0.69069   0.16461
C          C       0.52613   0.72609   0.25628
O          O       0.49015   0.67222   0.08675
O          O       0.55401   0.70642   0.06897
F          F       0.52377   0.75064   0.18512
F          F       0.55837   0.74254   0.31755
F          F       0.49791   0.71216   0.33572
Fe         Fe      0.50245   0.61592   0.13436
O          O       0.39286   0.91640   0.08875
S          S       0.37311   0.93885   0.15596
C          C       0.38762   0.98434   0.10935
O          O       0.33241   0.91615   0.12848
O          O       0.37317   0.93478   0.29199
F          F       0.37152   0.99829   0.18054
F          F       0.37744   0.98411   0.49324
F          F       0.42463   0.00515   0.11812
O          O       0.35573   0.86915   0.27366
S          S       0.32209   0.83306   0.19654
C          C       0.28164   0.80012   0.27446
O          O       0.34085   0.81610   0.12790
O          O       0.31141   0.84910   0.09272
F          F       0.25803   0.77535   0.19433
F          F       0.26516   0.81680   0.32796
F          F       0.29095   0.78333   0.35939
Fe         Fe      0.39975   0.88364   0.18876
O          O       0.08457   0.45571   0.07767
S          S       0.07399   0.42902   0.20156
C          C       0.02982   0.38856   0.20723
O          O       0.10492   0.42053   0.21042
O          O       0.08159   0.45367   0.30911
F          F       0.03414   0.35919   0.20767
F          F       0.00978   0.38724   0.10952
F          F       0.01197   0.38869   0.30913
O          O       0.15537   0.49465   0.12949
S          S       0.16835   0.49552   0.48503
C          C       0.16699   0.45560   0.42837
O          O       0.20686   0.52810   0.47935
O          O       0.14613   0.50801   0.41229
F          F       0.17971   0.46123   0.31368
H          H       0.47047   0.91383   0.05934
H          H       0.49573   0.97870   0.05481
H          H       0.44443   0.96781   0.21773
H          H       0.43280   0.85301   0.45374
H          H       0.35709   0.79762   0.41760
H          H       0.33180   0.73366   0.37885
H          H       0.40511   0.75927   0.08471
H          H       0.42973   0.82312   0.12518
C          C       0.08885   0.54773   0.17599
C          C       0.06514   0.55951   0.20702
C          C       0.02830   0.53529   0.20939
C          C       0.01471   0.49943   0.17735
C          C       0.04000   0.48984   0.13698
N          N       0.07593   0.51394   0.13905
C          C       0.12811   0.56989   0.18854
N          N       0.14752   0.55504   0.16975
C          C       0.18627   0.57553   0.16141
C          C       0.20794   0.56497   0.22128
C          C       0.24551   0.58655   0.22274
C          C       0.26230   0.61954   0.16404
C          C       0.24058   0.62959   0.10014
C          C       0.20303   0.60785   0.09921
C          C       0.70390   0.34386   0.40519
C          C       0.68850   0.36489   0.38083
H          H       0.07519   0.58657   0.23651
H          H       0.01111   0.54481   0.24203
H          H       0.03142   0.46320   0.10841
H          H       0.14019   0.59770   0.21114
H          H       0.19571   0.54030   0.26895
H          H       0.26128   0.57810   0.27355
H          H       0.25257   0.65442   0.05217
H          H       0.18686   0.61626   0.05067
C          C       0.58080   0.48048   0.19986
C          C       0.59640   0.51498   0.15627
C          C       0.58000   0.53509   0.18150
C          C       0.54896   0.52126   0.25325
C          C       0.53409   0.48593   0.29316
N          N       0.54998   0.46674   0.26347
C          C       0.59771   0.45851   0.19073
N          N       0.58121   0.42771   0.24283
C          C       0.98312   0.47203   0.19816
C          C       0.95675   0.48194   0.21867
N          N       0.92303   0.45738   0.25477
C          C       0.87495   0.39876   0.30314
N          N       0.85585   0.41347   0.32978
C          C       0.81805   0.39345   0.35529
C          C       0.80420   0.40122   0.45598
C          C       0.76695   0.38454   0.47439
C          C       0.74320   0.35906   0.39335
C          C       0.75715   0.34974   0.29636
C          C       0.79437   0.36703   0.27703
C          C       0.30192   0.64403   0.17453
C          C       0.32595   0.63092   0.17616
H          H       0.92836   0.38296   0.24923
H          H       0.99070   0.42594   0.19974
H          H       0.96295   0.50896   0.20823
H          H       0.86376   0.37033   0.30678
H          H       0.82254   0.42050   0.01882
H          H       0.75655   0.39175   0.05035
H          H       0.73910   0.33023   0.23306
H          H       0.80481   0.36060   0.19936
O          O       0.51012   0.40411   0.15239
S          S       0.46760   0.39920   0.17051
C          C       0.45904   0.43476   0.12579
O          O       0.44181   0.36460   0.10344
O          O       0.45700   0.38776   0.30105
F          F       0.43009   0.42149   0.04875
F          F       0.48916   0.46115   0.06986
F          F       0.45127   0.44856   0.22443
O          O       0.51654   0.36772   0.34858
S          S       0.51178   0.33937   0.23176
C          C       0.51547   0.30010   0.26308
O          O       0.53650   0.36172   0.12885
O          O       0.47396   0.32742   0.18019
F          F       0.50332   0.27755   0.16666
F          F       0.49493   0.28287   0.36108
F          F       0.55101   0.31013   0.28469
Fe         Fe      0.53257   0.41674   0.30554
O          O       0.54211   0.62751   0.02411
S          S       0.58714   0.65275   0.07238
C          C       0.61794   0.63519   0.07253
O          O       0.60311   0.68343   0.48121
O          O       0.59085   0.67405   0.18632
F          F       0.13193   0.42790   0.43226
F          F       0.18839   0.44747   0.49822
Fe         Fe      0.11608   0.50375   0.12737
O          O       0.91391   0.51646   0.29301
S          S       0.93139   0.53326   0.43151
C          C       0.97976   0.55350   0.45977
O          O       0.91891   0.56052   0.45598
O          O       0.90842   0.50380   0.02219
F          F       0.98769   0.56957   0.06977
F          F       0.99867   0.57862   0.37382
F          F       0.98936   0.52755   0.45776
O          O       0.84631   0.47289   0.37197
S          S       0.82570   0.47973   0.25145
C          C       0.82004   0.51861   0.25154
O          O       0.78898   0.44509   0.23963
O          O       0.84601   0.47774   0.14143
F          F       0.80249   0.51901   0.14922
F          F       0.85355   0.54895   0.25629
F          F       0.80001   0.51739   0.34918
Fe         Fe      0.88447   0.46618   0.31222
O          O       0.62992   0.14902   0.48587
S          S       0.65194   0.16233   0.35138
C          C       0.68279   0.20934   0.32225
O          O       0.67170   0.14088   0.33973
O          O       0.62230   0.14457   0.25618
F          F       0.70364   0.21293   0.22430
F          F       0.70492   0.22458   0.41905
F          F       0.66329   0.22617   0.30069
O          O       0.60254   0.07902   0.44754
S          S       0.60188   0.06575   0.09225
C          C       0.59713   0.02230   0.12120
O          O       0.57384   0.07201   0.15810
O          O       0.63767   0.09526   0.14516
F          F       0.59590   0.01660   0.24213
F          F       0.62613   0.02097   0.07369
F          F       0.56576   0.99613   0.07046
Fe         Fe      0.58303   0.11026   0.44996
H          H       0.60002   0.30247   0.40678
H          H       0.69364   0.29134   0.44508
H          H       0.70570   0.39264   0.35858
H          H       0.40436   0.70789   0.22538
H          H       0.29723   0.69095   0.19299
H          H       0.31598   0.60280   0.16482
C          C       0.49130   0.57498   0.83498
C          C       0.49235   0.55182   0.91771
C          C       0.51355   0.53660   0.89441
C          C       0.53200   0.54293   0.78614
C          C       0.53194   0.56850   0.70893
N          N       0.51284   0.58486   0.73801
C          C       0.46395   0.58577   0.83909
N          N       0.46195   0.60265   0.74755
C          C       0.43600   0.61406   0.73665
C          C       0.43327   0.63520   0.82453
C          C       0.40960   0.64829   0.81102
C          C       0.38758   0.63957   0.71013
C          C       0.38974   0.61759   0.62336
C          C       0.41425   0.60537   0.63599
C          C       0.65105   0.35015   0.88175
C          C       0.62905   0.31416   0.90817
H          H       0.47591   0.54465   0.99687
H          H       0.51454   0.51897   0.95948
H          H       0.54491   0.57354   0.62373
H          H       0.44487   0.57777   0.91087
H          H       0.45028   0.64220   0.90181
H          H       0.40839   0.66523   0.87922
H          H       0.37299   0.61056   0.54514
H          H       0.41595   0.58873   0.56846
C          C       0.44037   0.90512   0.89690
C          C       0.46382   0.92587   0.98714
C          C       0.47862   0.96255   0.98296
C          C       0.47114   0.97820   0.88669
C          C       0.44839   0.95619   0.79624
N          N       0.43188   0.92029   0.80708
C          C       0.42654   0.86704   0.88778
N          N       0.40832   0.85147   0.79332
C          C       0.39445   0.81451   0.77218
C          C       0.36726   0.78914   0.84475
C          C       0.35292   0.75298   0.82207
C          C       0.36642   0.74180   0.72816
C          C       0.39424   0.76739   0.65709
C          C       0.40799   0.80357   0.67881
C          C       0.64416   0.29274   0.93089
C          C       0.68171   0.30786   0.93044
C          C       0.59976   0.40925   0.77776
C          C       0.59271   0.39276   0.88849
C          C       0.60905   0.37321   0.92215
C          C       0.63457   0.37172   0.84804
C          C       0.64304   0.38967   0.73923
C          C       0.62564   0.40815   0.70425
C          C       0.36276   0.65374   0.69641
C          C       0.37583   0.69007   0.71013
H          H       0.62108   0.52625   0.60503
H          H       0.59228   0.56165   0.64727
H          H       0.50963   0.47334   0.84507
H          H       0.62496   0.46985   0.65716
H          H       0.57475   0.39540   0.94930
H          H       0.60208   0.35938   0.50629
H          H       0.66231   0.38847   0.68003
H          H       0.63215   0.42134   0.61937
C          C       0.51091   0.08437   0.90319
C          C       0.47446   0.06163   0.87769
C          C       0.46183   0.02537   0.86721
C          C       0.48533   0.01206   0.88442
C          C       0.52198   0.03610   0.90660
N          N       0.53362   0.07135   0.91435
C          C       0.52645   0.12272   0.92080
N          N       0.56066   0.14110   0.94559
C          C       0.58008   0.17918   0.94700
C          C       0.60473   0.19786   0.53749
C          C       0.62540   0.23496   0.53425
C          C       0.62076   0.25387   0.94153
C          C       0.59498   0.23515   0.85360
C          C       0.57504   0.19819   0.85579
C          C       0.35235   0.70355   0.70762
C          C       0.31545   0.68048   0.69084
H          H       0.45616   0.07175   0.86735
H          H       0.43347   0.00750   0.85032
H          H       0.54065   0.02645   0.91791
H          H       0.51006   0.13517   0.91084
H          H       0.60801   0.18351   0.60983
H          H       0.64503   0.24894   0.60308
H          H       0.59143   0.24919   0.78046
H          H       0.55633   0.18425   0.78451
C          C       0.91233   0.42250   0.76463
C          C       0.93655   0.41073   0.74063
C          C       0.97201   0.43555   0.70990
F          F       0.65240   0.66194   0.54471
F          F       0.60688   0.60828   0.99010
F          F       0.61842   0.62264   0.68465
O          O       0.52890   0.65715   0.73056
S          S       0.52432   0.69069   0.66461
C          C       0.52613   0.72609   0.75628
O          O       0.49015   0.67222   0.58676
O          O       0.55401   0.70642   0.56898
F          F       0.52377   0.75064   0.68512
F          F       0.55837   0.74254   0.81755
F          F       0.49791   0.71216   0.83572
Fe         Fe      0.50245   0.61592   0.63436
O          O       0.39286   0.91640   0.58874
S          S       0.37311   0.93885   0.65597
C          C       0.38762   0.98434   0.60935
O          O       0.33241   0.91615   0.62848
O          O       0.37317   0.93478   0.79199
F          F       0.37152   0.99829   0.68054
F          F       0.37744   0.98411   0.99324
F          F       0.42463   0.00515   0.61813
O          O       0.35573   0.86915   0.77366
S          S       0.32209   0.83306   0.69654
C          C       0.28164   0.80012   0.77446
O          O       0.34085   0.81610   0.62790
O          O       0.31141   0.84910   0.59272
F          F       0.25803   0.77535   0.69433
F          F       0.26516   0.81680   0.82796
F          F       0.29095   0.78333   0.85939
Fe         Fe      0.39975   0.88364   0.68876
O          O       0.08457   0.45571   0.57767
S          S       0.07399   0.42902   0.70156
C          C       0.02982   0.38856   0.70723
O          O       0.10492   0.42053   0.71042
O          O       0.08159   0.45367   0.80911
F          F       0.03414   0.35919   0.70767
F          F       0.00978   0.38724   0.60952
F          F       0.01197   0.38869   0.80913
O          O       0.15537   0.49465   0.62950
S          S       0.16835   0.49552   0.98503
C          C       0.16699   0.45560   0.92837
O          O       0.20686   0.52810   0.97935
O          O       0.14613   0.50801   0.91229
F          F       0.17971   0.46123   0.81368
H          H       0.47047   0.91383   0.55934
H          H       0.49573   0.97870   0.55481
H          H       0.44443   0.96781   0.71773
H          H       0.43280   0.85301   0.95374
H          H       0.35709   0.79762   0.91760
H          H       0.33180   0.73366   0.87884
H          H       0.40511   0.75927   0.58471
H          H       0.42973   0.82312   0.62518
C          C       0.08885   0.54773   0.67599
C          C       0.06514   0.55951   0.70702
C          C       0.02830   0.53529   0.70939
C          C       0.01471   0.49943   0.67735
C          C       0.04000   0.48984   0.63698
N          N       0.07593   0.51394   0.63905
C          C       0.12811   0.56989   0.68854
N          N       0.14752   0.55504   0.66975
C          C       0.18627   0.57553   0.66141
C          C       0.20794   0.56497   0.72128
C          C       0.24551   0.58655   0.72274
C          C       0.26230   0.61954   0.66404
C          C       0.24058   0.62959   0.60014
C          C       0.20303   0.60785   0.59921
C          C       0.70390   0.34386   0.90519
C          C       0.68850   0.36489   0.88082
H          H       0.07519   0.58657   0.73652
H          H       0.01111   0.54481   0.74203
H          H       0.03142   0.46320   0.60842
H          H       0.14019   0.59770   0.71114
H          H       0.19571   0.54030   0.76896
H          H       0.26128   0.57810   0.77355
H          H       0.25257   0.65442   0.55217
H          H       0.18686   0.61626   0.55067
C          C       0.58080   0.48048   0.69986
C          C       0.59640   0.51498   0.65627
C          C       0.58000   0.53509   0.68151
C          C       0.54896   0.52126   0.75325
C          C       0.53409   0.48593   0.79316
N          N       0.54998   0.46674   0.76347
C          C       0.59771   0.45851   0.69073
N          N       0.58121   0.42771   0.74283
C          C       0.98312   0.47203   0.69817
C          C       0.95675   0.48194   0.71866
N          N       0.92303   0.45738   0.75477
C          C       0.87495   0.39876   0.80314
N          N       0.85585   0.41347   0.82978
C          C       0.81805   0.39345   0.85529
C          C       0.80420   0.40122   0.95598
C          C       0.76695   0.38454   0.97439
C          C       0.74320   0.35906   0.89335
C          C       0.75715   0.34974   0.79636
C          C       0.79437   0.36703   0.77702
C          C       0.30192   0.64403   0.67453
C          C       0.32595   0.63092   0.67616
H          H       0.92836   0.38296   0.74923
H          H       0.99070   0.42594   0.69974
H          H       0.96295   0.50896   0.70823
H          H       0.86376   0.37033   0.80678
H          H       0.82254   0.42050   0.51882
H          H       0.75655   0.39175   0.55035
H          H       0.73910   0.33023   0.73307
H          H       0.80481   0.36060   0.69937
O          O       0.51012   0.40411   0.65239
S          S       0.46760   0.39920   0.67051
C          C       0.45904   0.43476   0.62579
O          O       0.44181   0.36460   0.60344
O          O       0.45700   0.38776   0.80105
F          F       0.43009   0.42149   0.54875
F          F       0.48916   0.46115   0.56986
F          F       0.45127   0.44856   0.72443
O          O       0.51654   0.36772   0.84858
S          S       0.51178   0.33937   0.73175
C          C       0.51547   0.30010   0.76308
O          O       0.53650   0.36172   0.62885
O          O       0.47396   0.32742   0.68019
F          F       0.50332   0.27755   0.66666
F          F       0.49493   0.28287   0.86108
F          F       0.55101   0.31013   0.78469
Fe         Fe      0.53257   0.41674   0.80554
O          O       0.54211   0.62751   0.52411
S          S       0.58714   0.65275   0.57238
C          C       0.61794   0.63519   0.57252
O          O       0.60311   0.68343   0.98121
O          O       0.59085   0.67405   0.68632
F          F       0.13193   0.42790   0.93226
F          F       0.18839   0.44747   0.99823
Fe         Fe      0.11608   0.50375   0.62736
O          O       0.91391   0.51646   0.79300
S          S       0.93139   0.53326   0.93151
C          C       0.97976   0.55350   0.95977
O          O       0.91891   0.56052   0.95598
O          O       0.90842   0.50380   0.52219
F          F       0.98769   0.56957   0.56977
F          F       0.99867   0.57862   0.87382
F          F       0.98936   0.52755   0.95776
O          O       0.84631   0.47289   0.87197
S          S       0.82570   0.47973   0.75145
C          C       0.82004   0.51861   0.75153
O          O       0.78898   0.44509   0.73963
O          O       0.84601   0.47774   0.64143
F          F       0.80249   0.51901   0.64922
F          F       0.85355   0.54895   0.75629
F          F       0.80001   0.51739   0.84918
Fe         Fe      0.88447   0.46618   0.81222
O          O       0.62992   0.14902   0.98587
S          S       0.65194   0.16233   0.85138
C          C       0.68279   0.20934   0.82225
O          O       0.67170   0.14088   0.83973
O          O       0.62230   0.14457   0.75619
F          F       0.70364   0.21293   0.72430
F          F       0.70492   0.22458   0.91905
F          F       0.66329   0.22617   0.80069
O          O       0.60254   0.07902   0.94754
S          S       0.60188   0.06575   0.59225
C          C       0.59713   0.02230   0.62120
O          O       0.57384   0.07201   0.65810
O          O       0.63767   0.09526   0.64516
F          F       0.59590   0.01660   0.74213
F          F       0.62613   0.02097   0.57369
F          F       0.56576   0.99613   0.57046
Fe         Fe      0.58303   0.11026   0.94996
H          H       0.60002   0.30247   0.90678
H          H       0.69364   0.29134   0.94508
H          H       0.70570   0.39264   0.85858
H          H       0.40436   0.70789   0.72538
H          H       0.29723   0.69095   0.69299
H          H       0.31598   0.60280   0.66482
