data_crystal

_cell_length_a    37.47060
_cell_length_b    35.88360
_cell_length_c    8.15480
_cell_angle_alpha 90.00000
_cell_angle_beta  90.00000
_cell_angle_gamma 120.00000

_space_group_name_Hall 'P 1'
_space_group_name_H-M_alt 'P 1'

loop_
_symmetry_equiv_pos_as_xyz
 'x,y,z'

loop_
_atom_site_label
_atom_site_type_symbol
_atom_site_fract_x
_atom_site_fract_y
_atom_site_fract_z
N          N       0.29577   0.69223   0.32819
C          C       0.27844   0.64949   0.30728
C          C       0.33725   0.78549   0.28608
C          C       0.35574   0.76453   0.34815
C          C       0.39222   0.78905   0.42059
C          C       0.40992   0.83391   0.42912
C          C       0.39245   0.85539   0.36128
C          C       0.35568   0.83018   0.29128
N          N       0.43895   0.57340   0.22739
C          C       0.42103   0.53167   0.23099
C          C       0.44709   0.51320   0.25986
C          C       0.43260   0.46888   0.25838
N          N       0.45984   0.45474   0.27738
H          H       0.30899   0.76728   0.23010
H          H       0.40669   0.77330   0.47091
H          H       0.43746   0.85189   0.48813
H          H       0.34070   0.84470   0.24081
H          H       0.38780   0.51142   0.22534
H          H       0.40073   0.44673   0.23648
N          N       0.41325   0.90217   0.35702
N          N       0.53056   0.03112   0.32028
N          N       0.30277   0.63205   0.29124
C          C       0.34417   0.65697   0.29625
C          C       0.21671   0.59127   0.19362
C          C       0.23335   0.62220   0.29476
C          C       0.20657   0.62702   0.38147
C          C       0.16381   0.60070   0.36779
C          C       0.14711   0.56997   0.26571
C          C       0.17407   0.56599   0.17811
C          C       0.45348   0.92542   0.35809
C          C       0.47254   0.97232   0.34698
C          C       0.51535   0.00027   0.34704
H          H       0.23684   0.58734   0.12487
H          H       0.21883   0.65064   0.46079
H          H       0.14343   0.60407   0.43669
H          H       0.16251   0.54359   0.09761
H          H       0.47290   0.91105   0.35931
H          H       0.53570   0.98796   0.36665
N          N       0.10306   0.54514   0.24778
N          N       0.94888   0.52546   0.23129
C          C       0.62464   0.35703   0.23331
C          C       0.82298   0.44944   0.22237
C          C       0.50471   0.04674   0.29947
C          C       0.75500   0.42740   0.13326
C          C       0.76167   0.39277   0.33064
C          C       0.80442   0.41931   0.32540
C          C       0.79793   0.45271   0.12582
C          C       0.52365   0.09251   0.26829
C          C       0.46193   0.01950   0.31049
H          H       0.73615   0.43043   0.05724
H          H       0.74805   0.36908   0.40936
H          H       0.82343   0.41623   0.40071
H          H       0.81192   0.47404   0.04332
H          H       0.50466   0.10718   0.25545
H          H       0.44168   0.03253   0.30207
N          N       0.02115   0.49393   0.22850
N          N       0.86712   0.47355   0.21071
C          C       0.63510   0.29788   0.24455
C          C       0.54110   0.40707   0.25916
C          C       0.93375   0.48227   0.23186
N          N       0.60945   0.31402   0.23827
C          C       0.55616   0.34885   0.28997
C          C       0.59605   0.37431   0.23891
C          C       0.60851   0.41648   0.19822
C          C       0.58133   0.43248   0.20739
C          C       0.52933   0.36511   0.30048
C          C       0.88897   0.45478   0.22342
C          C       0.96076   0.46584   0.23084
H          H       0.54586   0.31639   0.32443
H          H       0.63905   0.43683   0.15787
H          H       0.59134   0.46454   0.17047
H          H       0.49955   0.34458   0.34347
H          H       0.87472   0.42005   0.23026
H          H       0.94868   0.43149   0.22947
Fe         Fe      0.50034   0.60134   0.24776
O          O       0.02518   0.41963   0.18532
O          O       0.11359   0.47153   0.21417
O          O       0.43684   0.33530   0.24360
O          O       0.38975   0.37154   0.26496
Fe         Fe      0.44874   0.39496   0.25693
O          O       0.49435   0.61493   0.42752
O          O       0.55855   0.62388   0.27485
Fe         Fe      0.06646   0.48060   0.22085
O          O       0.33169   0.89479   0.36055
Fe         Fe      0.38834   0.94181   0.35009
S          S       0.32904   0.88221   0.02097
O          O       0.28940   0.88071   0.07154
O          O       0.31737   0.83440   0.02580
C          C       0.37600   0.92010   0.10274
F          F       0.40386   0.95662   0.04012
F          F       0.36202   0.93527   0.19544
F          F       0.39668   0.89978   0.14209
S          S       0.35214   0.00165   0.24719
O          O       0.35674   0.04442   0.30000
O          O       0.38606   0.01894   0.13878
C          C       0.29992   0.96879   0.18127
F          F       0.27729   0.98910   0.20249
F          F       0.30173   0.96289   0.04666
F          F       0.28077   0.92944   0.24507
O          O       0.94071   0.59953   0.20448
O          O       0.85889   0.54731   0.14955
Fe         Fe      0.90339   0.53804   0.20347
S          S       0.83335   0.55371   0.28265
O          O       0.78731   0.52326   0.24941
O          O       0.83909   0.53050   0.40194
C          C       0.84102   0.60741   0.31498
F          F       0.87985   0.63803   0.27307
F          F       0.81220   0.61250   0.24408
N          N       0.36145   0.69976   0.31708
C          C       0.36986   0.63688   0.28055
C          C       0.33723   0.71749   0.33354
C          C       0.40171   0.65198   0.18593
C          C       0.36139   0.60095   0.35820
C          C       0.38450   0.58053   0.34188
C          C       0.41587   0.59510   0.24593
C          C       0.42435   0.63078   0.16904
C          C       0.08125   0.56420   0.24107
C          C       0.03636   0.53698   0.22976
C          C       0.00934   0.55332   0.22365
H          H       0.40852   0.67957   0.12475
H          H       0.33717   0.58908   0.43238
H          H       0.37835   0.55350   0.40484
H          H       0.44853   0.64154   0.09630
H          H       0.09529   0.59890   0.24799
H          H       0.02149   0.58731   0.20916
N          N       0.51354   0.42475   0.27122
N          N       0.48719   0.54131   0.28707
N          N       0.67621   0.32485   0.24710
C          C       0.69172   0.36779   0.23786
C          C       0.63106   0.23186   0.34235
C          C       0.61809   0.25094   0.24657
C          C       0.58839   0.22480   0.15256
C          C       0.57215   0.18025   0.15420
C          C       0.58431   0.16096   0.25205
C          C       0.61367   0.18707   0.34607
C          C       0.52835   0.46534   0.30143
C          C       0.50017   0.48269   0.30240
C          C       0.51415   0.52702   0.31189
H          H       0.65388   0.25167   0.41572
H          H       0.57835   0.23914   0.07709
H          H       0.54951   0.16042   0.08060
H          H       0.62192   0.17227   0.42397
H          H       0.56075   0.48668   0.32156
H          H       0.54612   0.54930   0.33197
N          N       0.44688   0.98845   0.33314
N          N       0.56368   0.11494   0.26399
N          N       0.66592   0.38384   0.23031
C          C       0.73664   0.39680   0.23492
S          S       0.51857   0.67094   0.44292
O          O       0.52999   0.67881   0.09158
O          O       0.56207   0.68963   0.38259
C          C       0.49643   0.70428   0.39267
F          F       0.45576   0.68569   0.43129
F          F       0.49906   0.70973   0.25673
F          F       0.51856   0.74422   0.45202
S          S       0.58096   0.62126   0.12752
C          C       0.62374   0.67081   0.05965
F          F       0.62833   0.66552   0.42627
O          O       0.54543   0.59489   0.02986
O          O       0.59638   0.58929   0.15643
F          F       0.61607   0.70430   0.07702
F          F       0.65968   0.68035   0.12532
S          S       0.36722   0.36276   0.10931
O          O       0.33884   0.38244   0.12270
O          O       0.39969   0.39480   0.01111
C          C       0.33557   0.30764   0.04752
F          F       0.34029   0.27958   0.12976
F          F       0.29459   0.29670   0.04666
F          F       0.34744   0.30448   0.42034
S          S       0.45435   0.33341   0.09169
O          O       0.41564   0.30078   0.01398
O          O       0.47868   0.30923   0.10390
C          C       0.48054   0.38570   0.01807
F          F       0.47468   0.41723   0.07103
F          F       0.52181   0.40038   0.00239
F          F       0.46098   0.37781   0.40719
S          S       0.12531   0.47091   0.37516
O          O       0.13596   0.43460   0.38965
O          O       0.16733   0.51181   0.40013
C          C       0.08392   0.46440   0.47752
F          F       0.04862   0.45579   0.41247
F          F       0.07559   0.42922   0.05065
F          F       0.09590   0.50171   0.04585
S          S       0.02881   0.37728   0.25821
O          O       0.98799   0.33966   0.20361
O          O       0.01486   0.37261   0.40442
C          C       0.06527   0.35805   0.22213
F          F       0.07299   0.34248   0.33735
F          F       0.04821   0.32520   0.12983
F          F       0.10203   0.39043   0.17222
O          O       0.36911   0.98341   0.38062
F          F       0.83661   0.61265   0.44836
S          S       0.95125   0.61721   0.36885
O          O       0.91623   0.58231   0.45304
O          O       0.98739   0.61106   0.41380
C          C       0.96246   0.67156   0.41275
F          F       0.00054   0.69354   0.47385
F          F       0.96304   0.69338   0.29931
F          F       0.93267   0.66925   0.49856
O          O       0.64492   0.12611   0.29987
O          O       0.61113   0.04195   0.36183
Fe         Fe      0.58913   0.07839   0.30832
S          S       0.61245   0.01074   0.23123
O          O       0.65403   0.03856   0.16040
O          O       0.62212   0.97799   0.29843
C          C       0.57100   0.98239   0.11176
F          F       0.55650   0.00924   0.07298
F          F       0.58629   0.97128   0.00445
F          F       0.53951   0.94498   0.16531
S          S       0.65864   0.13960   0.13501
O          O       0.68425   0.11798   0.10200
O          O       0.61959   0.11242   0.05071
C          C       0.68996   0.19623   0.08755
F          F       0.72412   0.21585   0.16894
F          F       0.70267   0.19908   0.45748
F          F       0.66763   0.21690   0.10057
N          N       0.29577   0.69223   0.82819
C          C       0.27844   0.64949   0.80728
C          C       0.33725   0.78549   0.78609
C          C       0.35574   0.76453   0.84815
C          C       0.39222   0.78905   0.92059
C          C       0.40992   0.83391   0.92912
C          C       0.39245   0.85539   0.86128
C          C       0.35568   0.83018   0.79128
N          N       0.43895   0.57340   0.72738
C          C       0.42103   0.53167   0.73099
C          C       0.44709   0.51320   0.75985
C          C       0.43260   0.46888   0.75837
N          N       0.45984   0.45474   0.77738
H          H       0.30899   0.76728   0.73010
H          H       0.40669   0.77330   0.97091
H          H       0.43746   0.85189   0.98813
H          H       0.34070   0.84470   0.74081
H          H       0.38780   0.51142   0.72534
H          H       0.40073   0.44673   0.73648
N          N       0.41325   0.90217   0.85701
N          N       0.53056   0.03112   0.82028
N          N       0.30277   0.63205   0.79124
C          C       0.34417   0.65697   0.79625
C          C       0.21671   0.59127   0.69362
C          C       0.23335   0.62220   0.79476
C          C       0.20657   0.62702   0.88147
C          C       0.16381   0.60070   0.86779
C          C       0.14711   0.56997   0.76571
C          C       0.17407   0.56599   0.67811
C          C       0.45348   0.92542   0.85810
C          C       0.47254   0.97232   0.84698
C          C       0.51535   0.00027   0.84704
H          H       0.23684   0.58734   0.62487
H          H       0.21883   0.65064   0.96079
H          H       0.14343   0.60407   0.93669
H          H       0.16251   0.54359   0.59762
H          H       0.47290   0.91105   0.85931
H          H       0.53570   0.98796   0.86665
N          N       0.10306   0.54514   0.74778
N          N       0.94888   0.52546   0.73129
C          C       0.62464   0.35703   0.73332
C          C       0.82298   0.44944   0.72237
C          C       0.50471   0.04674   0.79947
C          C       0.75500   0.42740   0.63326
C          C       0.76167   0.39277   0.83064
C          C       0.80442   0.41931   0.82541
C          C       0.79793   0.45271   0.62582
C          C       0.52365   0.09251   0.76829
C          C       0.46193   0.01950   0.81049
H          H       0.73615   0.43043   0.55724
H          H       0.74805   0.36908   0.90936
H          H       0.82343   0.41623   0.90072
H          H       0.81192   0.47404   0.54332
H          H       0.50466   0.10718   0.75545
H          H       0.44168   0.03253   0.80207
N          N       0.02115   0.49393   0.72850
N          N       0.86712   0.47355   0.71071
C          C       0.63510   0.29788   0.74455
C          C       0.54110   0.40707   0.75916
C          C       0.93375   0.48227   0.73186
N          N       0.60945   0.31402   0.73827
C          C       0.55616   0.34885   0.78997
C          C       0.59605   0.37431   0.73891
C          C       0.60851   0.41648   0.69822
C          C       0.58133   0.43248   0.70739
C          C       0.52933   0.36511   0.80048
C          C       0.88897   0.45478   0.72342
C          C       0.96076   0.46584   0.73084
H          H       0.54586   0.31639   0.82443
H          H       0.63905   0.43683   0.65787
H          H       0.59134   0.46454   0.67047
H          H       0.49955   0.34458   0.84347
H          H       0.87472   0.42005   0.73026
H          H       0.94868   0.43149   0.72947
Fe         Fe      0.50034   0.60134   0.74776
O          O       0.02518   0.41963   0.68532
O          O       0.11359   0.47153   0.71417
O          O       0.43684   0.33530   0.74360
O          O       0.38975   0.37154   0.76496
Fe         Fe      0.44874   0.39496   0.75693
O          O       0.49435   0.61493   0.92752
O          O       0.55855   0.62388   0.77484
Fe         Fe      0.06646   0.48060   0.72084
O          O       0.33169   0.89479   0.86055
Fe         Fe      0.38834   0.94181   0.85009
S          S       0.32904   0.88221   0.52097
O          O       0.28940   0.88071   0.57154
O          O       0.31737   0.83440   0.52580
C          C       0.37600   0.92010   0.60274
F          F       0.40386   0.95662   0.54012
F          F       0.36202   0.93527   0.69544
F          F       0.39668   0.89978   0.64209
S          S       0.35214   0.00165   0.74719
O          O       0.35674   0.04442   0.80000
O          O       0.38606   0.01894   0.63878
C          C       0.29992   0.96879   0.68127
F          F       0.27729   0.98910   0.70249
F          F       0.30173   0.96289   0.54666
F          F       0.28077   0.92944   0.74507
O          O       0.94071   0.59953   0.70448
O          O       0.85889   0.54731   0.64955
Fe         Fe      0.90339   0.53804   0.70348
S          S       0.83335   0.55371   0.78265
O          O       0.78731   0.52326   0.74941
O          O       0.83909   0.53050   0.90194
C          C       0.84102   0.60741   0.81498
F          F       0.87985   0.63803   0.77306
F          F       0.81220   0.61250   0.74408
N          N       0.36145   0.69976   0.81708
C          C       0.36986   0.63688   0.78055
C          C       0.33723   0.71749   0.83354
C          C       0.40171   0.65198   0.68593
C          C       0.36139   0.60095   0.85820
C          C       0.38450   0.58053   0.84188
C          C       0.41587   0.59510   0.74593
C          C       0.42435   0.63078   0.66904
C          C       0.08125   0.56420   0.74107
C          C       0.03636   0.53698   0.72976
C          C       0.00934   0.55332   0.72365
H          H       0.40852   0.67957   0.62475
H          H       0.33717   0.58908   0.93238
H          H       0.37835   0.55350   0.90484
H          H       0.44853   0.64154   0.59630
H          H       0.09529   0.59890   0.74799
H          H       0.02149   0.58731   0.70915
N          N       0.51354   0.42475   0.77123
N          N       0.48719   0.54131   0.78707
N          N       0.67621   0.32485   0.74709
C          C       0.69172   0.36779   0.73786
C          C       0.63106   0.23186   0.84235
C          C       0.61809   0.25094   0.74657
C          C       0.58839   0.22480   0.65256
C          C       0.57215   0.18025   0.65420
C          C       0.58431   0.16096   0.75205
C          C       0.61367   0.18707   0.84607
C          C       0.52835   0.46534   0.80143
C          C       0.50017   0.48269   0.80239
C          C       0.51415   0.52702   0.81190
H          H       0.65388   0.25167   0.91572
H          H       0.57835   0.23914   0.57710
H          H       0.54951   0.16042   0.58061
H          H       0.62192   0.17227   0.92397
H          H       0.56075   0.48668   0.82156
H          H       0.54612   0.54930   0.83197
N          N       0.44688   0.98845   0.83314
N          N       0.56368   0.11494   0.76399
N          N       0.66592   0.38384   0.73031
C          C       0.73664   0.39680   0.73493
S          S       0.51857   0.67094   0.94292
O          O       0.52999   0.67881   0.59158
O          O       0.56207   0.68963   0.88258
C          C       0.49643   0.70428   0.89267
F          F       0.45576   0.68569   0.93129
F          F       0.49906   0.70973   0.75673
F          F       0.51856   0.74422   0.95202
S          S       0.58096   0.62126   0.62752
C          C       0.62374   0.67081   0.55966
F          F       0.62833   0.66552   0.92627
O          O       0.54543   0.59489   0.52987
O          O       0.59638   0.58929   0.65643
F          F       0.61607   0.70430   0.57702
F          F       0.65968   0.68035   0.62532
S          S       0.36722   0.36276   0.60932
O          O       0.33884   0.38244   0.62271
O          O       0.39969   0.39480   0.51111
C          C       0.33557   0.30764   0.54752
F          F       0.34029   0.27958   0.62977
F          F       0.29459   0.29670   0.54666
F          F       0.34744   0.30448   0.92034
S          S       0.45435   0.33341   0.59169
O          O       0.41564   0.30078   0.51398
O          O       0.47868   0.30923   0.60390
C          C       0.48054   0.38570   0.51806
F          F       0.47468   0.41723   0.57103
F          F       0.52181   0.40038   0.50240
F          F       0.46098   0.37781   0.90719
S          S       0.12531   0.47091   0.87516
O          O       0.13596   0.43460   0.88965
O          O       0.16733   0.51181   0.90013
C          C       0.08392   0.46440   0.97752
F          F       0.04862   0.45579   0.91247
F          F       0.07559   0.42922   0.55065
F          F       0.09590   0.50171   0.54585
S          S       0.02881   0.37728   0.75821
O          O       0.98799   0.33966   0.70361
O          O       0.01486   0.37261   0.90443
C          C       0.06527   0.35805   0.72213
F          F       0.07299   0.34248   0.83735
F          F       0.04821   0.32520   0.62983
F          F       0.10203   0.39043   0.67222
O          O       0.36911   0.98341   0.88062
F          F       0.83661   0.61265   0.94836
S          S       0.95125   0.61721   0.86886
O          O       0.91623   0.58231   0.95305
O          O       0.98739   0.61106   0.91380
C          C       0.96246   0.67156   0.91275
F          F       0.00054   0.69354   0.97385
F          F       0.96304   0.69338   0.79931
F          F       0.93267   0.66925   0.99856
O          O       0.64492   0.12611   0.79987
O          O       0.61113   0.04195   0.86183
Fe         Fe      0.58913   0.07839   0.80832
S          S       0.61245   0.01074   0.73123
O          O       0.65403   0.03856   0.66039
O          O       0.62212   0.97799   0.79843
C          C       0.57100   0.98239   0.61176
F          F       0.55650   0.00924   0.57298
F          F       0.58629   0.97128   0.50445
F          F       0.53951   0.94498   0.66531
S          S       0.65864   0.13960   0.63501
O          O       0.68425   0.11798   0.60201
O          O       0.61959   0.11242   0.55071
C          C       0.68996   0.19623   0.58756
F          F       0.72412   0.21585   0.66894
F          F       0.70267   0.19908   0.95748
F          F       0.66763   0.21690   0.60057
