data_crystal

_cell_length_a    43.01980
_cell_length_b    43.90750
_cell_length_c    7.04980
_cell_angle_alpha 90.00000
_cell_angle_beta  90.00000
_cell_angle_gamma 120.00000

_space_group_name_Hall 'P 1'
_space_group_name_H-M_alt 'P 1'

loop_
_symmetry_equiv_pos_as_xyz
 'x,y,z'

loop_
_atom_site_label
_atom_site_type_symbol
_atom_site_fract_x
_atom_site_fract_y
_atom_site_fract_z
C          C       0.47218   0.56328   0.32381
C          C       0.45596   0.52949   0.39842
C          C       0.47327   0.51016   0.38461
C          C       0.50663   0.52391   0.29084
C          C       0.52167   0.55877   0.21824
N          N       0.50520   0.57816   0.24561
C          C       0.45139   0.58051   0.29369
N          N       0.46493   0.60920   0.19425
C          C       0.44208   0.62403   0.15158
C          C       0.45155   0.65829   0.20689
C          C       0.42768   0.67107   0.18788
C          C       0.39244   0.64887   0.12487
C          C       0.38202   0.61405   0.07754
C          C       0.40621   0.60179   0.09327
C          C       0.64778   0.34824   0.38270
N          N       0.63162   0.31272   0.38896
H          H       0.42947   0.51772   0.46123
H          H       0.45947   0.48447   0.44727
H          H       0.54443   0.56935   0.12638
H          H       0.42392   0.56730   0.34037
H          H       0.47642   0.67457   0.27708
H          H       0.43595   0.69756   0.23461
H          H       0.35473   0.59595   0.03329
H          H       0.39597   0.57410   0.07051
C          C       0.43847   0.90715   0.37358
C          C       0.47283   0.92773   0.44819
C          C       0.48822   0.96392   0.44898
C          C       0.46974   0.97977   0.37317
C          C       0.43484   0.95767   0.29746
N          N       0.41934   0.92175   0.30664
C          C       0.42485   0.87012   0.33772
N          N       0.39516   0.85226   0.24422
C          C       0.38302   0.81549   0.20267
C          C       0.34947   0.78870   0.26408
C          C       0.33841   0.75323   0.23661
C          C       0.36215   0.74323   0.16152
C          C       0.39708   0.76960   0.11479
C          C       0.40741   0.80512   0.13678
C          C       0.65126   0.29645   0.39505
N          N       0.68753   0.31605   0.39411
C          C       0.57873   0.39305   0.31318
C          C       0.56801   0.36193   0.41359
C          C       0.58995   0.34715   0.43397
C          C       0.62548   0.36513   0.37087
C          C       0.63898   0.39901   0.29688
C          C       0.61615   0.41282   0.26883
C          C       0.36557   0.66058   0.12554
N          N       0.37588   0.69522   0.13296
H          H       0.59600   0.50252   0.05036
H          H       0.57157   0.54065   0.11125
H          H       0.48350   0.45491   0.40066
H          H       0.58887   0.44275   0.06779
H          H       0.54340   0.34921   0.48464
H          H       0.57946   0.32205   0.00553
H          H       0.66685   0.41423   0.25389
H          H       0.62870   0.43916   0.21299
C          C       0.52596   0.09055   0.45437
C          C       0.48952   0.07137   0.49805
C          C       0.47083   0.03541   0.46570
C          C       0.48770   0.01889   0.37915
C          C       0.52414   0.03999   0.32665
N          N       0.54321   0.07486   0.37507
C          C       0.54611   0.12843   0.48266
N          N       0.57925   0.14538   0.42740
C          C       0.59794   0.18326   0.41275
C          C       0.63279   0.20365   0.48218
C          C       0.65073   0.24040   0.47168
C          C       0.63308   0.25759   0.40031
C          C       0.59750   0.23726   0.33699
C          C       0.58030   0.20057   0.34125
C          C       0.35096   0.70551   0.14317
N          N       0.31560   0.68085   0.14677
H          H       0.47617   0.08393   0.06488
H          H       0.44441   0.02065   0.02290
H          H       0.53675   0.02754   0.25668
H          H       0.53264   0.14197   0.03583
H          H       0.64524   0.19102   0.05320
H          H       0.67775   0.25546   0.02742
H          H       0.58328   0.24983   0.28054
H          H       0.55315   0.18561   0.28830
C          C       0.91300   0.43903   0.27101
C          C       0.93514   0.42435   0.27209
C          C       0.97114   0.44541   0.22839
F          F       0.64839   0.63595   0.35496
F          F       0.62461   0.59792   0.13084
F          F       0.58971   0.59134   0.37088
O          O       0.53594   0.65712   0.28528
S          S       0.54746   0.69670   0.16734
C          C       0.55819   0.74080   0.25861
O          O       0.51635   0.68424   0.02757
O          O       0.57815   0.70179   0.03574
F          F       0.56457   0.76581   0.12526
F          F       0.58975   0.75469   0.36001
F          F       0.52922   0.73764   0.35897
Fe         Fe      0.51485   0.62109   0.09652
O          O       0.36247   0.91987   0.07324
S          S       0.33988   0.93539   0.22157
C          C       0.36358   0.98028   0.32457
O          O       0.30990   0.93588   0.10472
O          O       0.31390   0.90445   0.34465
F          F       0.34006   0.98786   0.41743
F          F       0.38118   0.00753   0.19921
F          F       0.38919   0.98112   0.43981
O          O       0.34003   0.86536   0.34747
S          S       0.30064   0.83389   0.23086
C          C       0.25762   0.79660   0.32156
O          O       0.31624   0.81888   0.08977
O          O       0.29144   0.85610   0.09917
F          F       0.23321   0.77585   0.18797
F          F       0.24005   0.81030   0.42303
F          F       0.26458   0.77367   0.42141
Fe         Fe      0.37669   0.88521   0.15677
O          O       0.08158   0.44772   0.04068
S          S       0.05717   0.41412   0.20180
C          C       0.00987   0.38287   0.10993
O          O       0.06269   0.38784   0.08550
O          O       0.08756   0.41153   0.29814
F          F       0.00460   0.35348   0.00657
F          F       0.00199   0.40417   0.00251
F          F       0.98291   0.36901   0.24066
O          O       0.14801   0.46901   0.18355
S          S       0.17916   0.47521   0.01111
C          C       0.17421   0.43381   0.12409
H          H       0.48794   0.91584   0.00082
H          H       0.51457   0.97955   0.00950
H          H       0.42186   0.96915   0.21893
H          H       0.44098   0.85880   0.37954
H          H       0.33229   0.79497   0.34243
H          H       0.31195   0.73350   0.28459
H          H       0.41643   0.76269   0.06239
H          H       0.43506   0.82440   0.10974
C          C       0.09851   0.54078   0.24807
C          C       0.07830   0.55682   0.28876
C          C       0.04152   0.53835   0.25533
C          C       0.02511   0.50437   0.17806
C          C       0.04771   0.49117   0.12060
N          N       0.08364   0.50962   0.15765
C          C       0.13623   0.55708   0.29846
N          N       0.15479   0.54233   0.24691
C          C       0.19281   0.56687   0.20350
C          C       0.22071   0.56213   0.27175
C          C       0.25683   0.58675   0.24079
C          C       0.26671   0.61926   0.15774
C          C       0.23964   0.62613   0.10153
C          C       0.20349   0.60037   0.12245
C          C       0.70408   0.35164   0.38794
N          N       0.68412   0.36768   0.38207
H          H       0.09043   0.58223   0.35777
H          H       0.02591   0.54954   0.30560
H          H       0.03639   0.46591   0.05372
H          H       0.14888   0.58396   0.34646
H          H       0.21579   0.54078   0.35988
H          H       0.27723   0.58146   0.29522
H          H       0.24651   0.65138   0.04038
H          H       0.18391   0.60762   0.08284
C          C       0.55253   0.45768   0.19018
C          C       0.57111   0.49254   0.12843
C          C       0.55691   0.51436   0.16490
C          C       0.52375   0.50136   0.25899
C          C       0.50752   0.46612   0.32484
N          N       0.52289   0.44597   0.29648
C          C       0.56582   0.43367   0.15888
N          N       0.55339   0.40528   0.26238
C          C       0.98521   0.48112   0.18618
C          C       0.96098   0.49421   0.18136
N          N       0.92510   0.47243   0.21055
C          C       0.87709   0.41994   0.34953
N          N       0.85795   0.43522   0.35217
C          C       0.81938   0.41345   0.36529
C          C       0.79957   0.42559   0.45964
C          C       0.76200   0.40657   0.46139
C          C       0.74367   0.37266   0.38272
C          C       0.76364   0.35860   0.30214
C          C       0.80099   0.37907   0.28903
C          C       0.30508   0.64621   0.14046
N          N       0.33017   0.63631   0.13051
H          H       0.92517   0.39755   0.31894
H          H       0.98846   0.43452   0.24652
H          H       0.97091   0.52159   0.17223
H          H       0.86639   0.39295   0.39559
H          H       0.81430   0.44795   0.04745
H          H       0.74736   0.41710   0.03538
H          H       0.75014   0.33247   0.24074
H          H       0.81532   0.36836   0.21424
O          O       0.46685   0.38020   0.23147
S          S       0.42726   0.36826   0.36520
C          C       0.41592   0.39987   0.47865
O          O       0.39348   0.34236   0.25305
O          O       0.42580   0.33969   0.49358
F          F       0.38326   0.38227   0.07005
F          F       0.41210   0.42217   0.35679
F          F       0.44329   0.42049   0.09889
O          O       0.49295   0.35108   0.00648
S          S       0.47426   0.31147   0.37222
C          C       0.45424   0.26559   0.46370
O          O       0.50474   0.31709   0.23840
O          O       0.44679   0.31273   0.23999
F          F       0.44274   0.23967   0.33016
F          F       0.42367   0.25759   0.06476
F          F       0.47994   0.26231   0.06368
Fe         Fe      0.50749   0.39801   0.40386
O          O       0.56216   0.62872   0.00760
S          S       0.60017   0.64496   0.15886
C          C       0.61648   0.61616   0.25978
O          O       0.63290   0.67119   0.04183
O          O       0.60028   0.67392   0.27990
O          O       0.21145   0.50132   0.13040
O          O       0.16357   0.49958   0.48168
F          F       0.17435   0.41029   0.49706
F          F       0.14347   0.41403   0.22737
F          F       0.20469   0.44377   0.23133
Fe         Fe      0.11790   0.49142   0.15221
O          O       0.91517   0.53057   0.11151
S          S       0.93836   0.56951   0.24386
C          C       0.98376   0.58637   0.34284
O          O       0.94196   0.60073   0.12693
O          O       0.90875   0.56779   0.36751
F          F       0.99457   0.61729   0.44000
F          F       0.01052   0.59467   0.21321
F          F       0.98236   0.56016   0.45060
O          O       0.84947   0.49631   0.34601
S          S       0.83101   0.51877   0.22467
C          C       0.81133   0.54537   0.31671
O          O       0.80237   0.49064   0.09528
O          O       0.86050   0.54197   0.08811
F          F       0.80004   0.56018   0.18299
F          F       0.83715   0.57382   0.41638
F          F       0.78063   0.52366   0.41735
Fe         Fe      0.88677   0.48569   0.25204
O          O       0.64500   0.15291   0.30119
S          S       0.67692   0.14799   0.17014
C          C       0.71569   0.18723   0.06243
O          O       0.69036   0.12589   0.27587
O          O       0.65259   0.11969   0.03252
F          F       0.73603   0.17665   0.46112
F          F       0.73909   0.21155   0.18946
F          F       0.70307   0.20477   0.45409
O          O       0.61003   0.07823   0.24721
S          S       0.60541   0.04206   0.37917
C          C       0.59893   0.99947   0.28729
O          O       0.57520   0.03439   0.01720
O          O       0.63929   0.05804   0.00448
F          F       0.59553   0.97541   0.42046
F          F       0.62901   0.00603   0.18571
F          F       0.56724   0.98260   0.18713
Fe         Fe      0.59587   0.11203   0.33782
C          C       0.47218   0.56328   0.82381
C          C       0.45596   0.52949   0.89842
C          C       0.47327   0.51016   0.88461
C          C       0.50663   0.52391   0.79084
C          C       0.52167   0.55877   0.71823
N          N       0.50520   0.57816   0.74561
C          C       0.45139   0.58051   0.79370
N          N       0.46493   0.60920   0.69425
C          C       0.44208   0.62403   0.65158
C          C       0.45155   0.65829   0.70689
C          C       0.42768   0.67107   0.68788
C          C       0.39244   0.64887   0.62487
C          C       0.38202   0.61405   0.57754
C          C       0.40621   0.60179   0.59327
C          C       0.64778   0.34824   0.88269
N          N       0.63162   0.31272   0.88896
H          H       0.42947   0.51772   0.96123
H          H       0.45947   0.48447   0.94727
H          H       0.54443   0.56935   0.62638
H          H       0.42392   0.56730   0.84037
H          H       0.47642   0.67457   0.77707
H          H       0.43595   0.69756   0.73461
H          H       0.35473   0.59595   0.53329
H          H       0.39597   0.57410   0.57051
C          C       0.43847   0.90715   0.87358
C          C       0.47283   0.92773   0.94819
C          C       0.48822   0.96392   0.94898
C          C       0.46974   0.97977   0.87317
C          C       0.43484   0.95767   0.79745
N          N       0.41934   0.92175   0.80664
C          C       0.42485   0.87012   0.83772
N          N       0.39516   0.85226   0.74422
C          C       0.38302   0.81549   0.70267
C          C       0.34947   0.78870   0.76408
C          C       0.33841   0.75323   0.73660
C          C       0.36215   0.74323   0.66152
C          C       0.39708   0.76960   0.61479
C          C       0.40741   0.80512   0.63678
C          C       0.65126   0.29645   0.89506
N          N       0.68753   0.31605   0.89411
C          C       0.57873   0.39305   0.81318
C          C       0.56801   0.36193   0.91359
C          C       0.58995   0.34715   0.93397
C          C       0.62548   0.36513   0.87087
C          C       0.63898   0.39901   0.79688
C          C       0.61615   0.41282   0.76883
C          C       0.36557   0.66058   0.62554
N          N       0.37588   0.69522   0.63296
H          H       0.59600   0.50252   0.55036
H          H       0.57157   0.54065   0.61125
H          H       0.48350   0.45491   0.90066
H          H       0.58887   0.44275   0.56779
H          H       0.54340   0.34921   0.98464
H          H       0.57946   0.32205   0.50553
H          H       0.66685   0.41423   0.75389
H          H       0.62870   0.43916   0.71299
C          C       0.52596   0.09055   0.95436
C          C       0.48952   0.07137   0.99805
C          C       0.47083   0.03541   0.96571
C          C       0.48770   0.01889   0.87915
C          C       0.52414   0.03999   0.82665
N          N       0.54321   0.07486   0.87508
C          C       0.54611   0.12843   0.98266
N          N       0.57925   0.14538   0.92740
C          C       0.59794   0.18326   0.91275
C          C       0.63279   0.20365   0.98219
C          C       0.65073   0.24040   0.97168
C          C       0.63308   0.25759   0.90031
C          C       0.59750   0.23726   0.83699
C          C       0.58030   0.20057   0.84125
C          C       0.35096   0.70551   0.64318
N          N       0.31560   0.68085   0.64677
H          H       0.47617   0.08393   0.56488
H          H       0.44441   0.02065   0.52290
H          H       0.53675   0.02754   0.75668
H          H       0.53264   0.14197   0.53583
H          H       0.64524   0.19102   0.55320
H          H       0.67775   0.25546   0.52742
H          H       0.58328   0.24983   0.78054
H          H       0.55315   0.18561   0.78830
C          C       0.91300   0.43903   0.77101
C          C       0.93514   0.42435   0.77209
C          C       0.97114   0.44541   0.72839
F          F       0.64839   0.63595   0.85496
F          F       0.62461   0.59792   0.63084
F          F       0.58971   0.59134   0.87088
O          O       0.53594   0.65712   0.78527
S          S       0.54746   0.69670   0.66734
C          C       0.55819   0.74080   0.75862
O          O       0.51635   0.68424   0.52757
O          O       0.57815   0.70179   0.53573
F          F       0.56457   0.76581   0.62526
F          F       0.58975   0.75469   0.86001
F          F       0.52922   0.73764   0.85898
Fe         Fe      0.51485   0.62109   0.59652
O          O       0.36247   0.91987   0.57324
S          S       0.33988   0.93539   0.72158
C          C       0.36358   0.98028   0.82457
O          O       0.30990   0.93588   0.60472
O          O       0.31390   0.90445   0.84465
F          F       0.34006   0.98786   0.91743
F          F       0.38118   0.00753   0.69921
F          F       0.38919   0.98112   0.93981
O          O       0.34003   0.86536   0.84747
S          S       0.30064   0.83389   0.73086
C          C       0.25762   0.79660   0.82156
O          O       0.31624   0.81888   0.58978
O          O       0.29144   0.85610   0.59918
F          F       0.23321   0.77585   0.68797
F          F       0.24005   0.81030   0.92303
F          F       0.26458   0.77367   0.92141
Fe         Fe      0.37669   0.88521   0.65677
O          O       0.08158   0.44772   0.54068
S          S       0.05717   0.41412   0.70180
C          C       0.00987   0.38287   0.60993
O          O       0.06269   0.38784   0.58551
O          O       0.08756   0.41153   0.79814
F          F       0.00460   0.35348   0.50657
F          F       0.00199   0.40417   0.50251
F          F       0.98291   0.36901   0.74067
O          O       0.14801   0.46901   0.68355
S          S       0.17916   0.47521   0.51111
C          C       0.17421   0.43381   0.62409
H          H       0.48794   0.91584   0.50082
H          H       0.51457   0.97955   0.50950
H          H       0.42186   0.96915   0.71893
H          H       0.44098   0.85880   0.87954
H          H       0.33229   0.79497   0.84244
H          H       0.31195   0.73350   0.78459
H          H       0.41643   0.76269   0.56239
H          H       0.43506   0.82440   0.60974
C          C       0.09851   0.54078   0.74807
C          C       0.07830   0.55682   0.78876
C          C       0.04152   0.53835   0.75534
C          C       0.02511   0.50437   0.67806
C          C       0.04771   0.49117   0.62060
N          N       0.08364   0.50962   0.65765
C          C       0.13623   0.55708   0.79846
N          N       0.15479   0.54233   0.74691
C          C       0.19281   0.56687   0.70349
C          C       0.22071   0.56213   0.77175
C          C       0.25683   0.58675   0.74079
C          C       0.26671   0.61926   0.65774
C          C       0.23964   0.62613   0.60153
C          C       0.20349   0.60037   0.62245
C          C       0.70408   0.35164   0.88794
N          N       0.68412   0.36768   0.88208
H          H       0.09043   0.58223   0.85777
H          H       0.02591   0.54954   0.80560
H          H       0.03639   0.46591   0.55372
H          H       0.14888   0.58396   0.84646
H          H       0.21579   0.54078   0.85988
H          H       0.27723   0.58146   0.79522
H          H       0.24651   0.65138   0.54039
H          H       0.18391   0.60762   0.58284
C          C       0.55253   0.45768   0.69017
C          C       0.57111   0.49254   0.62843
C          C       0.55691   0.51436   0.66490
C          C       0.52375   0.50136   0.75899
C          C       0.50752   0.46612   0.82484
N          N       0.52289   0.44597   0.79648
C          C       0.56582   0.43367   0.65888
N          N       0.55339   0.40528   0.76238
C          C       0.98521   0.48112   0.68618
C          C       0.96098   0.49421   0.68136
N          N       0.92510   0.47243   0.71056
C          C       0.87709   0.41994   0.84953
N          N       0.85795   0.43522   0.85217
C          C       0.81938   0.41345   0.86529
C          C       0.79957   0.42559   0.95964
C          C       0.76200   0.40657   0.96139
C          C       0.74367   0.37266   0.88272
C          C       0.76364   0.35860   0.80214
C          C       0.80099   0.37907   0.78903
C          C       0.30508   0.64621   0.64046
N          N       0.33017   0.63631   0.63051
H          H       0.92517   0.39755   0.81894
H          H       0.98846   0.43452   0.74651
H          H       0.97091   0.52159   0.67223
H          H       0.86639   0.39295   0.89559
H          H       0.81430   0.44795   0.54745
H          H       0.74736   0.41710   0.53538
H          H       0.75014   0.33247   0.74073
H          H       0.81532   0.36836   0.71425
O          O       0.46685   0.38020   0.73147
S          S       0.42726   0.36826   0.86520
C          C       0.41592   0.39987   0.97865
O          O       0.39348   0.34236   0.75305
O          O       0.42580   0.33969   0.99359
F          F       0.38326   0.38227   0.57005
F          F       0.41210   0.42217   0.85679
F          F       0.44329   0.42049   0.59889
O          O       0.49295   0.35108   0.50648
S          S       0.47426   0.31147   0.87221
C          C       0.45424   0.26559   0.96370
O          O       0.50474   0.31709   0.73840
O          O       0.44679   0.31273   0.73999
F          F       0.44274   0.23967   0.83016
F          F       0.42367   0.25759   0.56476
F          F       0.47994   0.26231   0.56368
Fe         Fe      0.50749   0.39801   0.90386
O          O       0.56216   0.62872   0.50760
S          S       0.60017   0.64496   0.65886
C          C       0.61648   0.61616   0.75978
O          O       0.63290   0.67119   0.54183
O          O       0.60028   0.67392   0.77990
O          O       0.21145   0.50132   0.63040
O          O       0.16357   0.49958   0.98168
F          F       0.17435   0.41029   0.99706
F          F       0.14347   0.41403   0.72737
F          F       0.20469   0.44377   0.73133
Fe         Fe      0.11790   0.49142   0.65221
O          O       0.91517   0.53057   0.61150
S          S       0.93836   0.56951   0.74386
C          C       0.98376   0.58637   0.84284
O          O       0.94196   0.60073   0.62693
O          O       0.90875   0.56779   0.86750
F          F       0.99457   0.61729   0.94000
F          F       0.01052   0.59467   0.71320
F          F       0.98236   0.56016   0.95060
O          O       0.84947   0.49631   0.84601
S          S       0.83101   0.51877   0.72467
C          C       0.81133   0.54537   0.81670
O          O       0.80237   0.49064   0.59528
O          O       0.86050   0.54197   0.58810
F          F       0.80004   0.56018   0.68299
F          F       0.83715   0.57382   0.91638
F          F       0.78063   0.52366   0.91735
Fe         Fe      0.88677   0.48569   0.75204
O          O       0.64500   0.15291   0.80119
S          S       0.67692   0.14799   0.67014
C          C       0.71569   0.18723   0.56243
O          O       0.69036   0.12589   0.77587
O          O       0.65259   0.11969   0.53252
F          F       0.73603   0.17665   0.96112
F          F       0.73909   0.21155   0.68946
F          F       0.70307   0.20477   0.95409
O          O       0.61003   0.07823   0.74722
S          S       0.60541   0.04206   0.87917
C          C       0.59893   0.99947   0.78729
O          O       0.57520   0.03439   0.51720
O          O       0.63929   0.05804   0.50448
F          F       0.59553   0.97541   0.92046
F          F       0.62901   0.00603   0.68571
F          F       0.56724   0.98260   0.68713
Fe         Fe      0.59587   0.11203   0.83783
