data_crystal

_cell_length_a    36.27220
_cell_length_b    35.70410
_cell_length_c    10.29500
_cell_angle_alpha 90.00000
_cell_angle_beta  90.00000
_cell_angle_gamma 120.00000

_space_group_name_Hall 'P 1'
_space_group_name_H-M_alt 'P 1'

loop_
_symmetry_equiv_pos_as_xyz
 'x,y,z'

loop_
_atom_site_label
_atom_site_type_symbol
_atom_site_fract_x
_atom_site_fract_y
_atom_site_fract_z
C          C       0.29080   0.70456   0.32208
C          C       0.27787   0.66117   0.36035
C          C       0.31962   0.78780   0.13997
C          C       0.34707   0.78065   0.23992
C          C       0.38723   0.81693   0.27618
C          C       0.39959   0.85831   0.21110
C          C       0.37223   0.86574   0.11112
C          C       0.33172   0.82952   0.07913
N          N       0.46647   0.61190   0.44496
C          C       0.44923   0.57051   0.48028
C          C       0.47683   0.55254   0.00892
C          C       0.45994   0.50693   0.01259
N          N       0.48522   0.48903   0.48824
H          H       0.28893   0.76098   0.10341
H          H       0.40912   0.81383   0.35723
H          H       0.43086   0.88500   0.24036
H          H       0.30871   0.83113   0.00301
H          H       0.41507   0.54883   0.48458
H          H       0.42670   0.48752   0.01167
N          N       0.38713   0.90924   0.04102
N          N       0.50629   0.02812   0.06903
C          C       0.30828   0.64885   0.38742
C          C       0.35175   0.67963   0.37906
C          C       0.21695   0.59067   0.26075
C          C       0.23197   0.62792   0.35979
C          C       0.20256   0.63450   0.44791
C          C       0.15907   0.60385   0.43828
C          C       0.14345   0.56713   0.33339
C          C       0.17324   0.56187   0.24386
C          C       0.42716   0.93358   0.00306
C          C       0.44624   0.98112   0.00915
C          C       0.49035   0.00813   0.02924
H          H       0.23891   0.58571   0.18634
H          H       0.21335   0.66288   0.02651
H          H       0.13722   0.60887   0.01199
H          H       0.16288   0.53814   0.14931
H          H       0.44794   0.91984   0.49361
H          H       0.51063   0.99416   0.02825
N          N       0.09797   0.54024   0.30280
N          N       0.95994   0.52403   0.22190
C          C       0.62446   0.36958   0.22392
C          C       0.82966   0.44909   0.17621
C          C       0.48044   0.04516   0.08303
C          C       0.75999   0.43557   0.08781
C          C       0.76433   0.38556   0.27747
C          C       0.80882   0.41117   0.27471
C          C       0.80441   0.45903   0.07805
C          C       0.50098   0.09188   0.12034
C          C       0.43626   0.01788   0.07054
H          H       0.74162   0.44498   0.01089
H          H       0.74933   0.35705   0.35614
H          H       0.82693   0.40201   0.35410
H          H       0.81939   0.48368   0.48851
H          H       0.48186   0.10768   0.11993
H          H       0.41657   0.03118   0.10186
N          N       0.01300   0.48808   0.25961
N          N       0.87582   0.47422   0.16801
C          C       0.62699   0.30245   0.18994
C          C       0.55176   0.43445   0.29993
C          C       0.94314   0.48018   0.21355
C          C       0.60375   0.32394   0.20844
C          C       0.56400   0.37387   0.35448
C          C       0.59951   0.39213   0.25003
C          C       0.61133   0.43233   0.17349
C          C       0.58737   0.45299   0.19700
C          C       0.54105   0.39548   0.38111
C          C       0.89741   0.45395   0.18484
C          C       0.96970   0.46191   0.22551
H          H       0.55487   0.34362   0.41956
H          H       0.63840   0.44700   0.09159
H          H       0.59640   0.48349   0.13515
H          H       0.51580   0.38298   0.47054
H          H       0.88223   0.41847   0.18602
H          H       0.95646   0.42845   0.19592
Fe         Fe      0.53124   0.64168   0.43774
O          O       0.02613   0.41446   0.17173
O          O       0.10921   0.46779   0.19012
O          O       0.41808   0.38537   0.03321
O          O       0.40924   0.40502   0.00033
Fe         Fe      0.46928   0.42694   0.41985
O          O       0.53193   0.66373   0.15178
O          O       0.59269   0.66898   0.46125
Fe         Fe      0.06133   0.47512   0.24344
O          O       0.30153   0.89246   0.09106
Fe         Fe      0.35907   0.94753   0.05727
S          S       0.26765   0.89640   0.22210
O          O       0.25137   0.91046   0.07518
O          O       0.24354   0.84583   0.21052
C          C       0.32159   0.92192   0.29835
F          F       0.36270   0.95648   0.28481
F          F       0.31024   0.94255   0.40067
F          F       0.32753   0.88801   0.34512
S          S       0.33922   0.02883   0.47243
O          O       0.36088   0.07192   0.07244
O          O       0.37452   0.03905   0.34753
C          C       0.28833   0.02307   0.40356
F          F       0.28426   0.05785   0.45960
F          F       0.28627   0.02285   0.23922
F          F       0.25479   0.98416   0.45978
O          O       0.96317   0.59887   0.08411
O          O       0.87856   0.55335   0.02361
Fe         Fe      0.91810   0.53995   0.13501
S          S       0.84643   0.56598   0.14366
O          O       0.80429   0.54603   0.04682
O          O       0.83030   0.53277   0.28153
C          C       0.85688   0.62129   0.19440
F          F       0.89475   0.65236   0.12643
F          F       0.82427   0.62731   0.13715
F          F       0.85902   0.62691   0.35816
S          S       0.97100   0.63968   0.22269
O          O       0.93244   0.62063   0.33844
C          C       0.36420   0.72276   0.33358
C          C       0.38396   0.66574   0.41102
C          C       0.33397   0.73550   0.30168
C          C       0.42352   0.68536   0.32998
C          C       0.37448   0.63083   0.01755
C          C       0.40236   0.61468   0.03470
C          C       0.44062   0.63252   0.44518
C          C       0.45136   0.66871   0.34802
C          C       0.07483   0.55896   0.29876
C          C       0.02924   0.53198   0.27375
C          C       0.00333   0.55067   0.24849
H          H       0.43129   0.71111   0.24216
H          H       0.34553   0.61590   0.08901
H          H       0.39404   0.58834   0.12060
H          H       0.47972   0.68143   0.27659
H          H       0.08850   0.59409   0.31290
H          H       0.01803   0.58560   0.23929
N          N       0.52961   0.45748   0.33890
N          N       0.51926   0.58042   0.49783
C          C       0.67126   0.32689   0.18402
C          C       0.69235   0.37250   0.19481
C          C       0.61935   0.23016   0.26763
C          C       0.60487   0.25394   0.17772
C          C       0.56883   0.23093   0.07875
C          C       0.54925   0.18525   0.06471
C          C       0.56390   0.16105   0.15443
C          C       0.59778   0.18427   0.26005
C          C       0.55052   0.49870   0.37840
C          C       0.52712   0.51709   0.45711
C          C       0.54469   0.56279   0.46994
H          H       0.64570   0.24696   0.35178
H          H       0.55700   0.24843   0.00668
H          H       0.52340   0.16892   0.47874
H          H       0.60582   0.16667   0.34282
H          H       0.58452   0.51860   0.35957
H          H       0.57725   0.58302   0.44046
N          N       0.41961   0.99732   0.03423
N          N       0.54208   0.11344   0.14466
C          C       0.66882   0.39362   0.21554
C          C       0.73947   0.39828   0.18701
S          S       0.56019   0.72166   0.14509
O          O       0.57176   0.72920   0.32225
O          O       0.60657   0.73837   0.09166
C          C       0.54419   0.76377   0.11248
F          F       0.50574   0.75247   0.18222
F          F       0.54042   0.77024   0.45208
F          F       0.57531   0.80343   0.17558
S          S       0.62560   0.66526   0.31690
C          C       0.67220   0.71685   0.24866
F          F       0.67443   0.71935   0.08418
O          O       0.59843   0.62797   0.19808
O          O       0.64571   0.64278   0.41553
F          F       0.66934   0.75210   0.30703
F          F       0.70928   0.71945   0.30559
S          S       0.37360   0.41269   0.36894
O          O       0.35703   0.43697   0.47667
O          O       0.40160   0.45001   0.25289
C          C       0.32439   0.36848   0.27715
F          F       0.29856   0.33925   0.39357
F          F       0.30219   0.38642   0.20481
F          F       0.33365   0.34619   0.16271
S          S       0.40885   0.33175   0.47421
O          O       0.38457   0.33184   0.32262
O          O       0.36721   0.29555   0.05175
C          C       0.43844   0.31018   0.36527
F          F       0.46383   0.33922   0.24820
F          F       0.46320   0.30204   0.47029
F          F       0.40981   0.27113   0.29152
S          S       0.13234   0.45054   0.33573
O          O       0.17032   0.45464   0.23653
O          O       0.15923   0.48947   0.44913
C          C       0.10992   0.39556   0.42274
F          F       0.09922   0.36536   0.29947
F          F       0.13978   0.39299   0.01858
F          F       0.07454   0.38575   0.01434
S          S       0.98784   0.37657   0.30572
O          O       0.94630   0.35872   0.20564
O          O       0.97837   0.40186   0.43676
C          C       0.98629   0.32550   0.36828
F          F       0.98791   0.32348   0.03273
F          F       0.94891   0.28943   0.31620
F          F       0.02003   0.32317   0.30375
O          O       0.33694   0.98987   0.11121
O          O       0.00578   0.64115   0.33551
C          C       0.99094   0.69727   0.16423
F          F       0.03262   0.72297   0.21542
F          F       0.99006   0.70065   0.49984
F          F       0.96627   0.71309   0.23119
O          O       0.61266   0.10561   0.30213
O          O       0.56779   0.01729   0.22940
Fe         Fe      0.56120   0.06762   0.17669
S          S       0.60128   0.00943   0.10061
O          O       0.61586   0.04518   0.47058
O          O       0.64322   0.02632   0.19773
C          C       0.58643   0.95513   0.01738
F          F       0.55090   0.94019   0.41997
F          F       0.62002   0.95819   0.42756
F          F       0.57741   0.92541   0.14134
S          S       0.65860   0.14105   0.19289
O          O       0.67268   0.11226   0.10158
O          O       0.64225   0.15686   0.05237
C          C       0.70651   0.18827   0.27829
F          F       0.72649   0.17321   0.38092
F          F       0.73445   0.21183   0.15527
F          F       0.69623   0.21590   0.36015
H          H       0.26665   0.71359   0.30379
H          H       0.29753   0.61488   0.41377
H          H       0.39766   0.74637   0.32036
H          H       0.68948   0.31043   0.16562
H          H       0.68539   0.42892   0.22957
H          H       0.56933   0.30505   0.21249
C          C       0.29080   0.70456   0.82208
C          C       0.27787   0.66117   0.86035
C          C       0.31962   0.78780   0.63997
C          C       0.34707   0.78065   0.73992
C          C       0.38723   0.81693   0.77617
C          C       0.39959   0.85831   0.71110
C          C       0.37223   0.86574   0.61111
C          C       0.33172   0.82952   0.57914
N          N       0.46647   0.61190   0.94496
C          C       0.44923   0.57051   0.98028
C          C       0.47683   0.55254   0.50892
C          C       0.45994   0.50693   0.51259
N          N       0.48522   0.48903   0.98824
H          H       0.28893   0.76098   0.60341
H          H       0.40912   0.81383   0.85723
H          H       0.43086   0.88500   0.74036
H          H       0.30871   0.83113   0.50301
H          H       0.41507   0.54883   0.98458
H          H       0.42670   0.48752   0.51167
N          N       0.38713   0.90924   0.54102
N          N       0.50629   0.02812   0.56903
C          C       0.30828   0.64885   0.88742
C          C       0.35175   0.67963   0.87906
C          C       0.21695   0.59067   0.76075
C          C       0.23197   0.62792   0.85979
C          C       0.20256   0.63450   0.94791
C          C       0.15907   0.60385   0.93828
C          C       0.14345   0.56713   0.83339
C          C       0.17324   0.56187   0.74386
C          C       0.42716   0.93358   0.50306
C          C       0.44624   0.98112   0.50916
C          C       0.49035   0.00813   0.52924
H          H       0.23891   0.58571   0.68634
H          H       0.21335   0.66288   0.52651
H          H       0.13722   0.60887   0.51199
H          H       0.16288   0.53814   0.64931
H          H       0.44794   0.91984   0.99360
H          H       0.51063   0.99416   0.52825
N          N       0.09797   0.54024   0.80280
N          N       0.95994   0.52403   0.72189
C          C       0.62446   0.36958   0.72391
C          C       0.82966   0.44909   0.67621
C          C       0.48044   0.04516   0.58304
C          C       0.75999   0.43557   0.58781
C          C       0.76433   0.38556   0.77747
C          C       0.80882   0.41117   0.77471
C          C       0.80441   0.45903   0.57805
C          C       0.50098   0.09188   0.62033
C          C       0.43626   0.01788   0.57054
H          H       0.74162   0.44498   0.51089
H          H       0.74933   0.35705   0.85614
H          H       0.82693   0.40201   0.85410
H          H       0.81939   0.48368   0.98851
H          H       0.48186   0.10768   0.61994
H          H       0.41657   0.03118   0.60186
N          N       0.01300   0.48808   0.75961
N          N       0.87582   0.47422   0.66801
C          C       0.62699   0.30245   0.68994
C          C       0.55176   0.43445   0.79993
C          C       0.94314   0.48018   0.71355
C          C       0.60375   0.32394   0.70844
C          C       0.56400   0.37387   0.85448
C          C       0.59951   0.39213   0.75003
C          C       0.61133   0.43233   0.67349
C          C       0.58737   0.45299   0.69700
C          C       0.54105   0.39548   0.88111
C          C       0.89741   0.45395   0.68484
C          C       0.96970   0.46191   0.72551
H          H       0.55487   0.34362   0.91956
H          H       0.63840   0.44700   0.59159
H          H       0.59640   0.48349   0.63515
H          H       0.51580   0.38298   0.97054
H          H       0.88223   0.41847   0.68602
H          H       0.95646   0.42845   0.69591
Fe         Fe      0.53124   0.64168   0.93774
O          O       0.02613   0.41446   0.67173
O          O       0.10921   0.46779   0.69012
O          O       0.41808   0.38537   0.53321
O          O       0.40924   0.40502   0.50033
Fe         Fe      0.46928   0.42694   0.91985
O          O       0.53193   0.66373   0.65178
O          O       0.59269   0.66898   0.96125
Fe         Fe      0.06133   0.47512   0.74344
O          O       0.30153   0.89246   0.59106
Fe         Fe      0.35907   0.94753   0.55727
S          S       0.26765   0.89640   0.72210
O          O       0.25137   0.91046   0.57518
O          O       0.24354   0.84583   0.71052
C          C       0.32159   0.92192   0.79835
F          F       0.36270   0.95648   0.78481
F          F       0.31024   0.94255   0.90067
F          F       0.32753   0.88801   0.84512
S          S       0.33922   0.02883   0.97243
O          O       0.36088   0.07192   0.57244
O          O       0.37452   0.03905   0.84753
C          C       0.28833   0.02307   0.90356
F          F       0.28426   0.05785   0.95960
F          F       0.28627   0.02285   0.73922
F          F       0.25479   0.98416   0.95978
O          O       0.96317   0.59887   0.58412
O          O       0.87856   0.55335   0.52361
Fe         Fe      0.91810   0.53995   0.63501
S          S       0.84643   0.56598   0.64366
O          O       0.80429   0.54603   0.54681
O          O       0.83030   0.53277   0.78153
C          C       0.85688   0.62129   0.69440
F          F       0.89475   0.65236   0.62643
F          F       0.82427   0.62731   0.63716
F          F       0.85902   0.62691   0.85815
S          S       0.97100   0.63968   0.72269
O          O       0.93244   0.62063   0.83844
C          C       0.36420   0.72276   0.83358
C          C       0.38396   0.66574   0.91102
C          C       0.33397   0.73550   0.80168
C          C       0.42352   0.68536   0.82998
C          C       0.37448   0.63083   0.51755
C          C       0.40236   0.61468   0.53470
C          C       0.44062   0.63252   0.94519
C          C       0.45136   0.66871   0.84801
C          C       0.07483   0.55896   0.79876
C          C       0.02924   0.53198   0.77375
C          C       0.00333   0.55067   0.74849
H          H       0.43129   0.71111   0.74216
H          H       0.34553   0.61590   0.58901
H          H       0.39404   0.58834   0.62060
H          H       0.47972   0.68143   0.77659
H          H       0.08850   0.59409   0.81290
H          H       0.01803   0.58560   0.73929
N          N       0.52961   0.45748   0.83890
N          N       0.51926   0.58042   0.99783
C          C       0.67126   0.32689   0.68402
C          C       0.69235   0.37250   0.69481
C          C       0.61935   0.23016   0.76763
C          C       0.60487   0.25394   0.67772
C          C       0.56883   0.23093   0.57875
C          C       0.54925   0.18525   0.56472
C          C       0.56390   0.16105   0.65443
C          C       0.59778   0.18427   0.76005
C          C       0.55052   0.49870   0.87840
C          C       0.52712   0.51709   0.95711
C          C       0.54469   0.56279   0.96994
H          H       0.64570   0.24696   0.85178
H          H       0.55700   0.24843   0.50667
H          H       0.52340   0.16892   0.97874
H          H       0.60582   0.16667   0.84282
H          H       0.58452   0.51860   0.85957
H          H       0.57725   0.58302   0.94046
N          N       0.41961   0.99732   0.53423
N          N       0.54208   0.11344   0.64466
C          C       0.66882   0.39362   0.71554
C          C       0.73947   0.39828   0.68701
S          S       0.56019   0.72166   0.64509
O          O       0.57176   0.72920   0.82225
O          O       0.60657   0.73837   0.59166
C          C       0.54419   0.76377   0.61248
F          F       0.50574   0.75247   0.68222
F          F       0.54042   0.77024   0.95209
F          F       0.57531   0.80343   0.67558
S          S       0.62560   0.66526   0.81691
C          C       0.67220   0.71685   0.74867
F          F       0.67443   0.71935   0.58418
O          O       0.59843   0.62797   0.69808
O          O       0.64571   0.64278   0.91553
F          F       0.66934   0.75210   0.80703
F          F       0.70928   0.71945   0.80559
S          S       0.37360   0.41269   0.86894
O          O       0.35703   0.43697   0.97667
O          O       0.40160   0.45001   0.75289
C          C       0.32439   0.36848   0.77715
F          F       0.29856   0.33925   0.89357
F          F       0.30219   0.38642   0.70481
F          F       0.33365   0.34619   0.66271
S          S       0.40885   0.33175   0.97421
O          O       0.38457   0.33184   0.82262
O          O       0.36721   0.29555   0.55175
C          C       0.43844   0.31018   0.86527
F          F       0.46383   0.33922   0.74820
F          F       0.46320   0.30204   0.97029
F          F       0.40981   0.27113   0.79153
S          S       0.13234   0.45054   0.83573
O          O       0.17032   0.45464   0.73653
O          O       0.15923   0.48947   0.94913
C          C       0.10992   0.39556   0.92274
F          F       0.09922   0.36536   0.79948
F          F       0.13978   0.39299   0.51858
F          F       0.07454   0.38575   0.51434
S          S       0.98784   0.37657   0.80572
O          O       0.94630   0.35872   0.70564
O          O       0.97837   0.40186   0.93676
C          C       0.98629   0.32550   0.86828
F          F       0.98791   0.32348   0.53273
F          F       0.94891   0.28943   0.81620
F          F       0.02003   0.32317   0.80376
O          O       0.33694   0.98987   0.61121
O          O       0.00578   0.64115   0.83551
C          C       0.99094   0.69727   0.66423
F          F       0.03262   0.72297   0.71542
F          F       0.99006   0.70065   0.99984
F          F       0.96627   0.71309   0.73118
O          O       0.61266   0.10561   0.80213
O          O       0.56779   0.01729   0.72940
Fe         Fe      0.56120   0.06762   0.67669
S          S       0.60128   0.00943   0.60061
O          O       0.61586   0.04518   0.97058
O          O       0.64322   0.02632   0.69773
C          C       0.58643   0.95513   0.51738
F          F       0.55090   0.94019   0.91997
F          F       0.62002   0.95819   0.92756
F          F       0.57741   0.92541   0.64135
S          S       0.65860   0.14105   0.69289
O          O       0.67268   0.11226   0.60158
O          O       0.64225   0.15686   0.55237
C          C       0.70651   0.18827   0.77829
F          F       0.72649   0.17321   0.88092
F          F       0.73445   0.21183   0.65527
F          F       0.69623   0.21590   0.86015
H          H       0.26665   0.71359   0.80379
H          H       0.29753   0.61488   0.91377
H          H       0.39766   0.74637   0.82036
H          H       0.68948   0.31043   0.66561
H          H       0.68539   0.42892   0.72957
H          H       0.56933   0.30505   0.71249
