data_crystal

_cell_length_a    44.64340
_cell_length_b    44.64340
_cell_length_c    7.46000
_cell_angle_alpha 90.00000
_cell_angle_beta  90.00000
_cell_angle_gamma 120.00000

_space_group_name_Hall 'P 1'
_space_group_name_H-M_alt 'P 1'

loop_
_symmetry_equiv_pos_as_xyz
 'x,y,z'

loop_
_atom_site_label
_atom_site_type_symbol
_atom_site_fract_x
_atom_site_fract_y
_atom_site_fract_z
C          C       0.70117   0.33963   0.24325
C          C       0.66037   0.36154   0.24325
C          C       0.63846   0.29883   0.24325
C          C       0.33963   0.70117   0.24325
C          C       0.36154   0.66037   0.24325
C          C       0.29883   0.63846   0.24325
C          C       0.67284   0.30565   0.24368
C          C       0.69435   0.36719   0.24368
C          C       0.63281   0.32716   0.24368
C          C       0.30565   0.67284   0.24368
C          C       0.36719   0.69435   0.24368
C          C       0.32716   0.63281   0.24368
C          C       0.73744   0.34621   0.23786
C          C       0.65379   0.39123   0.23786
C          C       0.60877   0.26256   0.23786
C          C       0.34621   0.73744   0.23786
C          C       0.39123   0.65379   0.23786
C          C       0.26256   0.60877   0.23786
C          C       0.61250   0.23543   0.16370
C          C       0.76457   0.37707   0.16370
C          C       0.62293   0.38750   0.16370
C          C       0.23543   0.61250   0.16370
C          C       0.37707   0.76457   0.16370
C          C       0.38750   0.62293   0.16370
C          C       0.58490   0.20166   0.15463
C          C       0.79834   0.38324   0.15463
C          C       0.61676   0.41510   0.15463
C          C       0.20166   0.58490   0.15463
C          C       0.38324   0.79834   0.15463
C          C       0.41510   0.61676   0.15463
C          C       0.55179   0.19353   0.21798
C          C       0.80647   0.35826   0.21798
C          C       0.64174   0.44821   0.21798
C          C       0.19353   0.55179   0.21798
C          C       0.35826   0.80647   0.21798
C          C       0.44821   0.64174   0.21798
C          C       0.57560   0.25401   0.30229
C          C       0.74599   0.32159   0.30229
C          C       0.67841   0.42440   0.30229
C          C       0.25401   0.57560   0.30229
C          C       0.32159   0.74599   0.30229
C          C       0.42440   0.67841   0.30229
N          N       0.52235   0.16051   0.19686
N          N       0.83949   0.36184   0.19686
N          N       0.63816   0.47765   0.19686
N          N       0.16051   0.52235   0.19686
N          N       0.36184   0.83949   0.19686
N          N       0.47765   0.63816   0.19686
H          H       0.63715   0.24069   0.10650
H          H       0.75931   0.39646   0.10650
H          H       0.60354   0.36285   0.10650
H          H       0.24069   0.63715   0.10650
H          H       0.39646   0.75931   0.10650
H          H       0.36285   0.60354   0.10650
H          H       0.58880   0.18190   0.09041
H          H       0.81810   0.40690   0.09041
H          H       0.59310   0.41120   0.09041
H          H       0.18190   0.58880   0.09041
H          H       0.40690   0.81810   0.09041
H          H       0.41120   0.59310   0.09041
C          C       0.03597   0.46720   0.12014
C          C       0.53280   0.56877   0.12014
C          C       0.43123   0.96403   0.12014
C          C       0.46720   0.03597   0.12014
C          C       0.56877   0.53280   0.12014
C          C       0.96403   0.43123   0.12014
C          C       0.06801   0.49537   0.16715
C          C       0.50463   0.57264   0.16715
C          C       0.42736   0.93199   0.16715
C          C       0.49537   0.06801   0.16715
C          C       0.57264   0.50463   0.16715
C          C       0.93199   0.42736   0.16715
C          C       0.09815   0.49262   0.17445
C          C       0.50738   0.60553   0.17445
C          C       0.39447   0.90185   0.17445
C          C       0.49262   0.09815   0.17445
C          C       0.60553   0.50738   0.17445
C          C       0.90185   0.39447   0.17445
C          C       0.09459   0.46006   0.13786
C          C       0.53994   0.63453   0.13786
C          C       0.36547   0.90541   0.13786
C          C       0.46006   0.09459   0.13786
C          C       0.63453   0.53994   0.13786
C          C       0.90541   0.36547   0.13786
H          H       0.33970   0.88282   0.14353
H          H       0.11718   0.45688   0.14353
H          H       0.54312   0.66030   0.14353
H          H       0.88282   0.33970   0.14353
H          H       0.45688   0.11718   0.14353
H          H       0.66030   0.54312   0.14353
C          C       0.54765   0.22052   0.29010
C          C       0.77948   0.32713   0.29010
C          C       0.67287   0.45235   0.29010
C          C       0.22052   0.54765   0.29010
C          C       0.32713   0.77948   0.29010
C          C       0.45235   0.67287   0.29010
C          C       0.52308   0.13200   0.21457
C          C       0.86800   0.39108   0.21457
C          C       0.60892   0.47692   0.21457
C          C       0.13200   0.52308   0.21457
C          C       0.39108   0.86800   0.21457
C          C       0.47692   0.60892   0.21457
H          H       0.52251   0.21478   0.34191
H          H       0.78522   0.30773   0.34191
H          H       0.69227   0.47749   0.34191
H          H       0.21478   0.52251   0.34191
H          H       0.30773   0.78522   0.34191
H          H       0.47749   0.69227   0.34191
H          H       0.57140   0.27368   0.36499
H          H       0.72632   0.29772   0.36499
H          H       0.70228   0.42860   0.36499
H          H       0.27368   0.57140   0.36499
H          H       0.29772   0.72632   0.36499
H          H       0.42860   0.70228   0.36499
H          H       0.54668   0.13155   0.25987
H          H       0.86845   0.41513   0.25987
H          H       0.58487   0.45332   0.25987
H          H       0.13155   0.54668   0.25987
H          H       0.41513   0.86845   0.25987
H          H       0.45332   0.58487   0.25987
C          C       0.56571   0.59802   0.08347
C          C       0.40198   0.96769   0.08347
C          C       0.03231   0.43429   0.08347
C          C       0.59802   0.56571   0.08347
C          C       0.96769   0.40198   0.08347
C          C       0.43429   0.03231   0.08347
H          H       0.47979   0.54964   0.19459
H          H       0.45036   0.93015   0.19459
H          H       0.06985   0.52021   0.19459
H          H       0.54964   0.47979   0.19459
H          H       0.93015   0.45036   0.19459
H          H       0.52021   0.06985   0.19459
C          C       0.43158   0.06252   0.09624
C          C       0.93748   0.36906   0.09624
C          C       0.63094   0.56842   0.09624
C          C       0.06252   0.43158   0.09624
C          C       0.36906   0.93748   0.09624
C          C       0.56842   0.63094   0.09624
H          H       0.59299   0.65443   0.07341
H          H       0.34557   0.93856   0.07341
H          H       0.06144   0.40701   0.07341
H          H       0.65443   0.59299   0.07341
H          H       0.93856   0.34557   0.07341
H          H       0.40701   0.06144   0.07341
H          H       0.67766   0.28405   0.24300
H          H       0.71595   0.39361   0.24300
H          H       0.60639   0.32234   0.24300
H          H       0.28405   0.67766   0.24300
H          H       0.39361   0.71595   0.24300
H          H       0.32234   0.60639   0.24300
H          H       0.64002   0.61735   0.37533
H          H       0.38265   0.02267   0.37533
H          H       0.97733   0.35998   0.37533
H          H       0.61735   0.64002   0.37533
H          H       0.02267   0.38265   0.37533
H          H       0.35998   0.97733   0.37533
H          H       0.64306   0.64306   0.06435
H          H       0.35694   0.00000   0.06435
H          H       0.00000   0.35694   0.06435
C          C       0.62520   0.62520   0.46083
C          C       0.37480   0.00000   0.46083
C          C       0.00000   0.37480   0.46083
S          S       0.47435   0.00000   0.09967
S          S       0.00000   0.47435   0.09967
S          S       0.52565   0.52565   0.09967
N          N       0.40512   0.00000   0.03643
N          N       0.00000   0.40512   0.03643
N          N       0.59488   0.59488   0.03643
C          C       0.70117   0.33963   0.74325
C          C       0.66037   0.36154   0.74325
C          C       0.63846   0.29883   0.74325
C          C       0.33963   0.70117   0.74325
C          C       0.36154   0.66037   0.74325
C          C       0.29883   0.63846   0.74325
C          C       0.67284   0.30565   0.74368
C          C       0.69435   0.36719   0.74368
C          C       0.63281   0.32716   0.74368
C          C       0.30565   0.67284   0.74368
C          C       0.36719   0.69435   0.74368
C          C       0.32716   0.63281   0.74368
C          C       0.73744   0.34621   0.73786
C          C       0.65379   0.39123   0.73786
C          C       0.60877   0.26256   0.73786
C          C       0.34621   0.73744   0.73786
C          C       0.39123   0.65379   0.73786
C          C       0.26256   0.60877   0.73786
C          C       0.61250   0.23543   0.66370
C          C       0.76457   0.37707   0.66370
C          C       0.62293   0.38750   0.66370
C          C       0.23543   0.61250   0.66370
C          C       0.37707   0.76457   0.66370
C          C       0.38750   0.62293   0.66370
C          C       0.58490   0.20166   0.65463
C          C       0.79834   0.38324   0.65463
C          C       0.61676   0.41510   0.65463
C          C       0.20166   0.58490   0.65463
C          C       0.38324   0.79834   0.65463
C          C       0.41510   0.61676   0.65463
C          C       0.55179   0.19353   0.71798
C          C       0.80647   0.35826   0.71798
C          C       0.64174   0.44821   0.71798
C          C       0.19353   0.55179   0.71798
C          C       0.35826   0.80647   0.71798
C          C       0.44821   0.64174   0.71798
C          C       0.57560   0.25401   0.80229
C          C       0.74599   0.32159   0.80229
C          C       0.67841   0.42440   0.80229
C          C       0.25401   0.57560   0.80229
C          C       0.32159   0.74599   0.80229
C          C       0.42440   0.67841   0.80229
N          N       0.52235   0.16051   0.69686
N          N       0.83949   0.36184   0.69686
N          N       0.63816   0.47765   0.69686
N          N       0.16051   0.52235   0.69686
N          N       0.36184   0.83949   0.69686
N          N       0.47765   0.63816   0.69686
H          H       0.63715   0.24069   0.60650
H          H       0.75931   0.39646   0.60650
H          H       0.60354   0.36285   0.60650
H          H       0.24069   0.63715   0.60650
H          H       0.39646   0.75931   0.60650
H          H       0.36285   0.60354   0.60650
H          H       0.58880   0.18190   0.59041
H          H       0.81810   0.40690   0.59041
H          H       0.59310   0.41120   0.59041
H          H       0.18190   0.58880   0.59041
H          H       0.40690   0.81810   0.59041
H          H       0.41120   0.59310   0.59041
C          C       0.03597   0.46720   0.62013
C          C       0.53280   0.56877   0.62013
C          C       0.43123   0.96403   0.62013
C          C       0.46720   0.03597   0.62013
C          C       0.56877   0.53280   0.62013
C          C       0.96403   0.43123   0.62013
C          C       0.06801   0.49537   0.66715
C          C       0.50463   0.57264   0.66715
C          C       0.42736   0.93199   0.66715
C          C       0.49537   0.06801   0.66715
C          C       0.57264   0.50463   0.66715
C          C       0.93199   0.42736   0.66715
C          C       0.09815   0.49262   0.67445
C          C       0.50738   0.60553   0.67445
C          C       0.39447   0.90185   0.67445
C          C       0.49262   0.09815   0.67445
C          C       0.60553   0.50738   0.67445
C          C       0.90185   0.39447   0.67445
C          C       0.09459   0.46006   0.63786
C          C       0.53994   0.63453   0.63786
C          C       0.36547   0.90541   0.63786
C          C       0.46006   0.09459   0.63786
C          C       0.63453   0.53994   0.63786
C          C       0.90541   0.36547   0.63786
H          H       0.33970   0.88282   0.64353
H          H       0.11718   0.45688   0.64353
H          H       0.54312   0.66030   0.64353
H          H       0.88282   0.33970   0.64353
H          H       0.45688   0.11718   0.64353
H          H       0.66030   0.54312   0.64353
C          C       0.54765   0.22052   0.79010
C          C       0.77948   0.32713   0.79010
C          C       0.67287   0.45235   0.79010
C          C       0.22052   0.54765   0.79010
C          C       0.32713   0.77948   0.79010
C          C       0.45235   0.67287   0.79010
C          C       0.52308   0.13200   0.71457
C          C       0.86800   0.39108   0.71457
C          C       0.60892   0.47692   0.71457
C          C       0.13200   0.52308   0.71457
C          C       0.39108   0.86800   0.71457
C          C       0.47692   0.60892   0.71457
H          H       0.52251   0.21478   0.84191
H          H       0.78522   0.30773   0.84191
H          H       0.69227   0.47749   0.84191
H          H       0.21478   0.52251   0.84191
H          H       0.30773   0.78522   0.84191
H          H       0.47749   0.69227   0.84191
H          H       0.57140   0.27368   0.86499
H          H       0.72632   0.29772   0.86499
H          H       0.70228   0.42860   0.86499
H          H       0.27368   0.57140   0.86499
H          H       0.29772   0.72632   0.86499
H          H       0.42860   0.70228   0.86499
H          H       0.54668   0.13155   0.75987
H          H       0.86845   0.41513   0.75987
H          H       0.58487   0.45332   0.75987
H          H       0.13155   0.54668   0.75987
H          H       0.41513   0.86845   0.75987
H          H       0.45332   0.58487   0.75987
C          C       0.56571   0.59802   0.58347
C          C       0.40198   0.96769   0.58347
C          C       0.03231   0.43429   0.58347
C          C       0.59802   0.56571   0.58347
C          C       0.96769   0.40198   0.58347
C          C       0.43429   0.03231   0.58347
H          H       0.47979   0.54964   0.69459
H          H       0.45036   0.93015   0.69459
H          H       0.06985   0.52021   0.69459
H          H       0.54964   0.47979   0.69459
H          H       0.93015   0.45036   0.69459
H          H       0.52021   0.06985   0.69459
C          C       0.43158   0.06252   0.59623
C          C       0.93748   0.36906   0.59623
C          C       0.63094   0.56842   0.59623
C          C       0.06252   0.43158   0.59623
C          C       0.36906   0.93748   0.59623
C          C       0.56842   0.63094   0.59623
H          H       0.59299   0.65443   0.57341
H          H       0.34557   0.93856   0.57341
H          H       0.06144   0.40701   0.57341
H          H       0.65443   0.59299   0.57341
H          H       0.93856   0.34557   0.57341
H          H       0.40701   0.06144   0.57341
H          H       0.67766   0.28405   0.74301
H          H       0.71595   0.39361   0.74301
H          H       0.60639   0.32234   0.74301
H          H       0.28405   0.67766   0.74301
H          H       0.39361   0.71595   0.74301
H          H       0.32234   0.60639   0.74301
H          H       0.64002   0.61735   0.87533
H          H       0.38265   0.02267   0.87533
H          H       0.97733   0.35998   0.87533
H          H       0.61735   0.64002   0.87533
H          H       0.02267   0.38265   0.87533
H          H       0.35998   0.97733   0.87533
H          H       0.64306   0.64306   0.56435
H          H       0.35694   0.00000   0.56435
H          H       0.00000   0.35694   0.56435
C          C       0.62520   0.62520   0.96084
C          C       0.37480   0.00000   0.96084
C          C       0.00000   0.37480   0.96084
S          S       0.47435   0.00000   0.59967
S          S       0.00000   0.47435   0.59967
S          S       0.52565   0.52565   0.59967
N          N       0.40512   0.00000   0.53643
N          N       0.00000   0.40512   0.53643
N          N       0.59488   0.59488   0.53643
