data_crystal

_cell_length_a    37.40960
_cell_length_b    23.38080
_cell_length_c    7.47780
_cell_angle_alpha 90.00000
_cell_angle_beta  90.00000
_cell_angle_gamma 90.00000

_space_group_name_Hall 'P 1'
_space_group_name_H-M_alt 'P 1'

loop_
_symmetry_equiv_pos_as_xyz
 'x,y,z'

loop_
_atom_site_label
_atom_site_type_symbol
_atom_site_fract_x
_atom_site_fract_y
_atom_site_fract_z
C          C       0.48179   0.10493   0.42449
C          C       0.51821   0.89507   0.42449
C          C       0.48179   0.89507   0.42449
C          C       0.51821   0.10493   0.42449
C          C       0.98179   0.60493   0.42449
C          C       0.01821   0.39507   0.42449
C          C       0.98179   0.39507   0.42449
C          C       0.01821   0.60493   0.42449
C          C       0.46134   0.05360   0.38701
C          C       0.53866   0.94640   0.38701
C          C       0.46134   0.94640   0.38701
C          C       0.53866   0.05360   0.38701
C          C       0.96134   0.55360   0.38701
C          C       0.03866   0.44640   0.38701
C          C       0.96134   0.44640   0.38701
C          C       0.03866   0.55360   0.38701
C          C       0.42351   0.05367   0.35739
C          C       0.57649   0.94633   0.35739
C          C       0.42351   0.94633   0.35739
C          C       0.57649   0.05367   0.35739
C          C       0.92351   0.55367   0.35739
C          C       0.07649   0.44633   0.35739
C          C       0.92351   0.44633   0.35739
C          C       0.07649   0.55367   0.35739
C          C       0.40238   0.10854   0.34010
C          C       0.59762   0.89146   0.34010
C          C       0.40238   0.89146   0.34010
C          C       0.59762   0.10854   0.34010
C          C       0.90238   0.60854   0.34010
C          C       0.09762   0.39146   0.34010
C          C       0.90238   0.39146   0.34010
C          C       0.09762   0.60854   0.34010
C          C       0.41709   0.15840   0.25788
C          C       0.58291   0.84160   0.25788
C          C       0.41709   0.84160   0.25788
C          C       0.58291   0.15840   0.25788
C          C       0.91709   0.65840   0.25788
C          C       0.08291   0.34160   0.25788
C          C       0.91709   0.34160   0.25788
C          C       0.08291   0.65840   0.25788
C          C       0.39888   0.21069   0.25185
C          C       0.60112   0.78931   0.25185
C          C       0.39888   0.78931   0.25185
C          C       0.60112   0.21069   0.25185
C          C       0.89888   0.71069   0.25185
C          C       0.10112   0.28931   0.25185
C          C       0.89888   0.28931   0.25185
C          C       0.10112   0.71069   0.25185
C          C       0.36373   0.21517   0.31866
C          C       0.63627   0.78483   0.31866
C          C       0.36373   0.78483   0.31866
C          C       0.63627   0.21517   0.31866
C          C       0.86373   0.71517   0.31866
C          C       0.13627   0.28483   0.31866
C          C       0.86373   0.28483   0.31866
C          C       0.13627   0.71517   0.31866
C          C       0.34783   0.16519   0.39432
C          C       0.65217   0.83481   0.39432
C          C       0.34783   0.83481   0.39432
C          C       0.65217   0.16519   0.39432
C          C       0.84783   0.66519   0.39432
C          C       0.15217   0.33481   0.39432
C          C       0.84783   0.33481   0.39432
C          C       0.15217   0.66519   0.39432
C          C       0.36706   0.11346   0.40621
C          C       0.63294   0.88654   0.40621
C          C       0.36706   0.88654   0.40621
C          C       0.63294   0.11346   0.40621
C          C       0.86706   0.61346   0.40621
C          C       0.13294   0.38654   0.40621
C          C       0.86706   0.38654   0.40621
C          C       0.13294   0.61346   0.40621
N          N       0.34746   0.72975   0.31037
N          N       0.65254   0.27025   0.31037
N          N       0.34746   0.27025   0.31037
N          N       0.65254   0.72975   0.31037
N          N       0.84746   0.22975   0.31037
N          N       0.15254   0.77025   0.31037
N          N       0.84746   0.77025   0.31037
N          N       0.15254   0.22975   0.31037
C          C       0.26128   0.65842   0.22001
C          C       0.73872   0.34158   0.22001
C          C       0.26128   0.34158   0.22001
C          C       0.73872   0.65842   0.22001
C          C       0.76128   0.15842   0.22001
C          C       0.23872   0.84158   0.22001
C          C       0.76128   0.84158   0.22001
C          C       0.23872   0.15842   0.22001
C          C       0.29840   0.66460   0.24075
C          C       0.70160   0.33540   0.24075
C          C       0.29840   0.33540   0.24075
C          C       0.70160   0.66460   0.24075
C          C       0.79840   0.16460   0.24075
C          C       0.20160   0.83540   0.24075
C          C       0.79840   0.83540   0.24075
C          C       0.20160   0.16460   0.24075
C          C       0.31943   0.61395   0.23086
C          C       0.68057   0.38605   0.23086
C          C       0.31943   0.38605   0.23086
C          C       0.68057   0.61395   0.23086
C          C       0.81943   0.11395   0.23086
C          C       0.18057   0.88605   0.23086
C          C       0.81943   0.88605   0.23086
C          C       0.18057   0.11395   0.23086
C          C       0.30404   0.56021   0.19465
C          C       0.69596   0.43979   0.19465
C          C       0.30404   0.43979   0.19465
C          C       0.69596   0.56021   0.19465
C          C       0.80404   0.06021   0.19465
C          C       0.19596   0.93979   0.19465
C          C       0.80404   0.93979   0.19465
C          C       0.19596   0.06021   0.19465
C          C       0.26648   0.55400   0.17231
C          C       0.73352   0.44600   0.17231
C          C       0.26648   0.44600   0.17231
C          C       0.73352   0.55400   0.17231
C          C       0.76648   0.05400   0.17231
C          C       0.23352   0.94600   0.17231
C          C       0.76648   0.94600   0.17231
C          C       0.23352   0.05400   0.17231
C          C       0.24548   0.60461   0.19032
C          C       0.75452   0.39539   0.19032
C          C       0.24548   0.39539   0.19032
C          C       0.75452   0.60461   0.19032
C          C       0.74548   0.10461   0.19032
C          C       0.25452   0.89539   0.19032
C          C       0.74548   0.89539   0.19032
C          C       0.25452   0.10461   0.19032
C          C       0.31464   0.72224   0.26065
C          C       0.68536   0.27776   0.26065
C          C       0.31464   0.27776   0.26065
C          C       0.68536   0.72224   0.26065
C          C       0.81464   0.22224   0.26065
C          C       0.18536   0.77776   0.26065
C          C       0.81464   0.77776   0.26065
C          C       0.18536   0.22224   0.26065
H          H       0.46845   0.14533   0.45749
H          H       0.53155   0.85467   0.45749
H          H       0.46845   0.85467   0.45749
H          H       0.53155   0.14533   0.45749
H          H       0.96845   0.64533   0.45749
H          H       0.03155   0.35467   0.45749
H          H       0.96845   0.35467   0.45749
H          H       0.03155   0.64533   0.45749
H          H       0.44321   0.15654   0.19454
H          H       0.55679   0.84346   0.19454
H          H       0.44321   0.84346   0.19454
H          H       0.55679   0.15654   0.19454
H          H       0.94321   0.65654   0.19454
H          H       0.05679   0.34346   0.19454
H          H       0.94321   0.34346   0.19454
H          H       0.05679   0.65654   0.19454
H          H       0.41121   0.24805   0.18782
H          H       0.58879   0.75195   0.18782
H          H       0.41121   0.75195   0.18782
H          H       0.58879   0.24805   0.18782
H          H       0.91121   0.74805   0.18782
H          H       0.08879   0.25195   0.18782
H          H       0.91121   0.25195   0.18782
H          H       0.08879   0.74805   0.18782
H          H       0.32101   0.16723   0.45127
H          H       0.67899   0.83277   0.45127
H          H       0.32101   0.83277   0.45127
H          H       0.67899   0.16723   0.45127
H          H       0.82101   0.66723   0.45127
H          H       0.17899   0.33277   0.45127
H          H       0.82101   0.33277   0.45127
H          H       0.17899   0.66723   0.45127
H          H       0.35453   0.07682   0.47410
H          H       0.64547   0.92318   0.47410
H          H       0.35453   0.92318   0.47410
H          H       0.64547   0.07682   0.47410
H          H       0.85453   0.57682   0.47410
H          H       0.14547   0.42318   0.47410
H          H       0.85453   0.42318   0.47410
H          H       0.14547   0.57682   0.47410
H          H       0.24411   0.69627   0.22911
H          H       0.75589   0.30373   0.22911
H          H       0.24411   0.30373   0.22911
H          H       0.75589   0.69627   0.22911
H          H       0.74411   0.19627   0.22911
H          H       0.25589   0.80373   0.22911
H          H       0.74411   0.80373   0.22911
H          H       0.25589   0.19627   0.22911
H          H       0.34827   0.61738   0.24545
H          H       0.65173   0.38262   0.24545
H          H       0.34827   0.38262   0.24545
H          H       0.65173   0.61738   0.24545
H          H       0.84827   0.11738   0.24545
H          H       0.15173   0.88262   0.24545
H          H       0.84827   0.88262   0.24545
H          H       0.15173   0.11738   0.24545
H          H       0.21652   0.60298   0.18014
H          H       0.78348   0.39702   0.18014
H          H       0.21652   0.39702   0.18014
H          H       0.78348   0.60298   0.18014
H          H       0.71652   0.10298   0.18014
H          H       0.28348   0.89702   0.18014
H          H       0.71652   0.89702   0.18014
H          H       0.28348   0.10298   0.18014
H          H       0.20912   0.46203   0.47741
H          H       0.79088   0.53797   0.47741
H          H       0.20912   0.53797   0.47741
H          H       0.79088   0.46203   0.47741
H          H       0.70912   0.96203   0.47741
H          H       0.29088   0.03797   0.47741
H          H       0.70912   0.03797   0.47741
H          H       0.29088   0.96203   0.47741
H          H       0.29736   0.75942   0.22145
H          H       0.70264   0.24058   0.22145
H          H       0.29736   0.24058   0.22145
H          H       0.70264   0.75942   0.22145
H          H       0.79736   0.25942   0.22145
H          H       0.20264   0.74058   0.22145
H          H       0.79736   0.74058   0.22145
H          H       0.20264   0.25942   0.22145
C          C       0.48066   0.00000   0.38799
C          C       0.51934   0.00000   0.38799
C          C       0.98066   0.50000   0.38799
C          C       0.01934   0.50000   0.38799
C          C       0.40612   0.00000   0.33837
C          C       0.59388   0.00000   0.33837
C          C       0.90612   0.50000   0.33837
C          C       0.09388   0.50000   0.33837
H          H       0.37778   0.00000   0.30410
H          H       0.62222   0.00000   0.30410
H          H       0.87778   0.50000   0.30410
H          H       0.12222   0.50000   0.30410
N          N       0.25026   0.50000   0.13239
N          N       0.74974   0.50000   0.13239
N          N       0.75026   0.00000   0.13239
N          N       0.24974   0.00000   0.13239
C          C       0.21363   0.50000   0.06212
C          C       0.78637   0.50000   0.06212
C          C       0.71363   0.00000   0.06212
C          C       0.28637   0.00000   0.06212
S          S       0.33368   0.50000   0.16637
S          S       0.66632   0.50000   0.16637
S          S       0.83368   0.00000   0.16637
S          S       0.16632   0.00000   0.16637
H          H       0.19285   0.50000   0.16770
H          H       0.80715   0.50000   0.16770
H          H       0.69285   0.00000   0.16770
H          H       0.30715   0.00000   0.16770
C          C       0.48179   0.10493   0.92449
C          C       0.51821   0.89507   0.92449
C          C       0.48179   0.89507   0.92449
C          C       0.51821   0.10493   0.92449
C          C       0.98179   0.60493   0.92449
C          C       0.01821   0.39507   0.92449
C          C       0.98179   0.39507   0.92449
C          C       0.01821   0.60493   0.92449
C          C       0.46134   0.05360   0.88701
C          C       0.53866   0.94640   0.88701
C          C       0.46134   0.94640   0.88701
C          C       0.53866   0.05360   0.88701
C          C       0.96134   0.55360   0.88701
C          C       0.03866   0.44640   0.88701
C          C       0.96134   0.44640   0.88701
C          C       0.03866   0.55360   0.88701
C          C       0.42351   0.05367   0.85738
C          C       0.57649   0.94633   0.85738
C          C       0.42351   0.94633   0.85738
C          C       0.57649   0.05367   0.85738
C          C       0.92351   0.55367   0.85738
C          C       0.07649   0.44633   0.85738
C          C       0.92351   0.44633   0.85738
C          C       0.07649   0.55367   0.85738
C          C       0.40238   0.10854   0.84010
C          C       0.59762   0.89146   0.84010
C          C       0.40238   0.89146   0.84010
C          C       0.59762   0.10854   0.84010
C          C       0.90238   0.60854   0.84010
C          C       0.09762   0.39146   0.84010
C          C       0.90238   0.39146   0.84010
C          C       0.09762   0.60854   0.84010
C          C       0.41709   0.15840   0.75788
C          C       0.58291   0.84160   0.75788
C          C       0.41709   0.84160   0.75788
C          C       0.58291   0.15840   0.75788
C          C       0.91709   0.65840   0.75788
C          C       0.08291   0.34160   0.75788
C          C       0.91709   0.34160   0.75788
C          C       0.08291   0.65840   0.75788
C          C       0.39888   0.21069   0.75186
C          C       0.60112   0.78931   0.75186
C          C       0.39888   0.78931   0.75186
C          C       0.60112   0.21069   0.75186
C          C       0.89888   0.71069   0.75186
C          C       0.10112   0.28931   0.75186
C          C       0.89888   0.28931   0.75186
C          C       0.10112   0.71069   0.75186
C          C       0.36373   0.21517   0.81866
C          C       0.63627   0.78483   0.81866
C          C       0.36373   0.78483   0.81866
C          C       0.63627   0.21517   0.81866
C          C       0.86373   0.71517   0.81866
C          C       0.13627   0.28483   0.81866
C          C       0.86373   0.28483   0.81866
C          C       0.13627   0.71517   0.81866
C          C       0.34783   0.16519   0.89433
C          C       0.65217   0.83481   0.89433
C          C       0.34783   0.83481   0.89433
C          C       0.65217   0.16519   0.89433
C          C       0.84783   0.66519   0.89433
C          C       0.15217   0.33481   0.89433
C          C       0.84783   0.33481   0.89433
C          C       0.15217   0.66519   0.89433
C          C       0.36706   0.11346   0.90621
C          C       0.63294   0.88654   0.90621
C          C       0.36706   0.88654   0.90621
C          C       0.63294   0.11346   0.90621
C          C       0.86706   0.61346   0.90621
C          C       0.13294   0.38654   0.90621
C          C       0.86706   0.38654   0.90621
C          C       0.13294   0.61346   0.90621
N          N       0.34746   0.72975   0.81037
N          N       0.65254   0.27025   0.81037
N          N       0.34746   0.27025   0.81037
N          N       0.65254   0.72975   0.81037
N          N       0.84746   0.22975   0.81037
N          N       0.15254   0.77025   0.81037
N          N       0.84746   0.77025   0.81037
N          N       0.15254   0.22975   0.81037
C          C       0.26128   0.65842   0.72001
C          C       0.73872   0.34158   0.72001
C          C       0.26128   0.34158   0.72001
C          C       0.73872   0.65842   0.72001
C          C       0.76128   0.15842   0.72001
C          C       0.23872   0.84158   0.72001
C          C       0.76128   0.84158   0.72001
C          C       0.23872   0.15842   0.72001
C          C       0.29840   0.66460   0.74075
C          C       0.70160   0.33540   0.74075
C          C       0.29840   0.33540   0.74075
C          C       0.70160   0.66460   0.74075
C          C       0.79840   0.16460   0.74075
C          C       0.20160   0.83540   0.74075
C          C       0.79840   0.83540   0.74075
C          C       0.20160   0.16460   0.74075
C          C       0.31943   0.61395   0.73086
C          C       0.68057   0.38605   0.73086
C          C       0.31943   0.38605   0.73086
C          C       0.68057   0.61395   0.73086
C          C       0.81943   0.11395   0.73086
C          C       0.18057   0.88605   0.73086
C          C       0.81943   0.88605   0.73086
C          C       0.18057   0.11395   0.73086
C          C       0.30404   0.56021   0.69465
C          C       0.69596   0.43979   0.69465
C          C       0.30404   0.43979   0.69465
C          C       0.69596   0.56021   0.69465
C          C       0.80404   0.06021   0.69465
C          C       0.19596   0.93979   0.69465
C          C       0.80404   0.93979   0.69465
C          C       0.19596   0.06021   0.69465
C          C       0.26648   0.55400   0.67231
C          C       0.73352   0.44600   0.67231
C          C       0.26648   0.44600   0.67231
C          C       0.73352   0.55400   0.67231
C          C       0.76648   0.05400   0.67231
C          C       0.23352   0.94600   0.67231
C          C       0.76648   0.94600   0.67231
C          C       0.23352   0.05400   0.67231
C          C       0.24548   0.60461   0.69032
C          C       0.75452   0.39539   0.69032
C          C       0.24548   0.39539   0.69032
C          C       0.75452   0.60461   0.69032
C          C       0.74548   0.10461   0.69032
C          C       0.25452   0.89539   0.69032
C          C       0.74548   0.89539   0.69032
C          C       0.25452   0.10461   0.69032
C          C       0.31464   0.72224   0.76065
C          C       0.68536   0.27776   0.76065
C          C       0.31464   0.27776   0.76065
C          C       0.68536   0.72224   0.76065
C          C       0.81464   0.22224   0.76065
C          C       0.18536   0.77776   0.76065
C          C       0.81464   0.77776   0.76065
C          C       0.18536   0.22224   0.76065
H          H       0.46845   0.14533   0.95749
H          H       0.53155   0.85467   0.95749
H          H       0.46845   0.85467   0.95749
H          H       0.53155   0.14533   0.95749
H          H       0.96845   0.64533   0.95749
H          H       0.03155   0.35467   0.95749
H          H       0.96845   0.35467   0.95749
H          H       0.03155   0.64533   0.95749
H          H       0.44321   0.15654   0.69455
H          H       0.55679   0.84346   0.69455
H          H       0.44321   0.84346   0.69455
H          H       0.55679   0.15654   0.69455
H          H       0.94321   0.65654   0.69455
H          H       0.05679   0.34346   0.69455
H          H       0.94321   0.34346   0.69455
H          H       0.05679   0.65654   0.69455
H          H       0.41121   0.24805   0.68783
H          H       0.58879   0.75195   0.68783
H          H       0.41121   0.75195   0.68783
H          H       0.58879   0.24805   0.68783
H          H       0.91121   0.74805   0.68783
H          H       0.08879   0.25195   0.68783
H          H       0.91121   0.25195   0.68783
H          H       0.08879   0.74805   0.68783
H          H       0.32101   0.16723   0.95127
H          H       0.67899   0.83277   0.95127
H          H       0.32101   0.83277   0.95127
H          H       0.67899   0.16723   0.95127
H          H       0.82101   0.66723   0.95127
H          H       0.17899   0.33277   0.95127
H          H       0.82101   0.33277   0.95127
H          H       0.17899   0.66723   0.95127
H          H       0.35453   0.07682   0.97410
H          H       0.64547   0.92318   0.97410
H          H       0.35453   0.92318   0.97410
H          H       0.64547   0.07682   0.97410
H          H       0.85453   0.57682   0.97410
H          H       0.14547   0.42318   0.97410
H          H       0.85453   0.42318   0.97410
H          H       0.14547   0.57682   0.97410
H          H       0.24411   0.69627   0.72911
H          H       0.75589   0.30373   0.72911
H          H       0.24411   0.30373   0.72911
H          H       0.75589   0.69627   0.72911
H          H       0.74411   0.19627   0.72911
H          H       0.25589   0.80373   0.72911
H          H       0.74411   0.80373   0.72911
H          H       0.25589   0.19627   0.72911
H          H       0.34827   0.61738   0.74545
H          H       0.65173   0.38262   0.74545
H          H       0.34827   0.38262   0.74545
H          H       0.65173   0.61738   0.74545
H          H       0.84827   0.11738   0.74545
H          H       0.15173   0.88262   0.74545
H          H       0.84827   0.88262   0.74545
H          H       0.15173   0.11738   0.74545
H          H       0.21652   0.60298   0.68014
H          H       0.78348   0.39702   0.68014
H          H       0.21652   0.39702   0.68014
H          H       0.78348   0.60298   0.68014
H          H       0.71652   0.10298   0.68014
H          H       0.28348   0.89702   0.68014
H          H       0.71652   0.89702   0.68014
H          H       0.28348   0.10298   0.68014
H          H       0.20912   0.46203   0.97741
H          H       0.79088   0.53797   0.97741
H          H       0.20912   0.53797   0.97741
H          H       0.79088   0.46203   0.97741
H          H       0.70912   0.96203   0.97741
H          H       0.29088   0.03797   0.97741
H          H       0.70912   0.03797   0.97741
H          H       0.29088   0.96203   0.97741
H          H       0.29736   0.75942   0.72145
H          H       0.70264   0.24058   0.72145
H          H       0.29736   0.24058   0.72145
H          H       0.70264   0.75942   0.72145
H          H       0.79736   0.25942   0.72145
H          H       0.20264   0.74058   0.72145
H          H       0.79736   0.74058   0.72145
H          H       0.20264   0.25942   0.72145
C          C       0.48066   0.00000   0.88798
C          C       0.51934   0.00000   0.88798
C          C       0.98066   0.50000   0.88798
C          C       0.01934   0.50000   0.88798
C          C       0.40612   0.00000   0.83837
C          C       0.59388   0.00000   0.83837
C          C       0.90612   0.50000   0.83837
C          C       0.09388   0.50000   0.83837
H          H       0.37778   0.00000   0.80410
H          H       0.62222   0.00000   0.80410
H          H       0.87778   0.50000   0.80410
H          H       0.12222   0.50000   0.80410
N          N       0.25026   0.50000   0.63239
N          N       0.74974   0.50000   0.63239
N          N       0.75026   0.00000   0.63239
N          N       0.24974   0.00000   0.63239
C          C       0.21363   0.50000   0.56212
C          C       0.78637   0.50000   0.56212
C          C       0.71363   0.00000   0.56212
C          C       0.28637   0.00000   0.56212
S          S       0.33368   0.50000   0.66637
S          S       0.66632   0.50000   0.66637
S          S       0.83368   0.00000   0.66637
S          S       0.16632   0.00000   0.66637
H          H       0.19285   0.50000   0.66770
H          H       0.80715   0.50000   0.66770
H          H       0.69285   0.00000   0.66770
H          H       0.30715   0.00000   0.66770
