data_crystal

_cell_length_a    30.36050
_cell_length_b    30.36050
_cell_length_c    7.14020
_cell_angle_alpha 90.00000
_cell_angle_beta  90.00000
_cell_angle_gamma 120.00000

_space_group_name_Hall 'P 1'
_space_group_name_H-M_alt 'P 1'

loop_
_symmetry_equiv_pos_as_xyz
 'x,y,z'

loop_
_atom_site_label
_atom_site_type_symbol
_atom_site_fract_x
_atom_site_fract_y
_atom_site_fract_z
C          C       0.51142   0.14512   0.20228
C          C       0.85488   0.36630   0.20228
C          C       0.63370   0.48858   0.20228
C          C       0.14512   0.51142   0.20228
C          C       0.36630   0.85488   0.20228
C          C       0.48858   0.63370   0.20228
C          C       0.46270   0.13912   0.17688
C          C       0.86088   0.32358   0.17688
C          C       0.67642   0.53730   0.17688
C          C       0.13912   0.46270   0.17688
C          C       0.32358   0.86088   0.17688
C          C       0.53730   0.67642   0.17688
C          C       0.41910   0.09150   0.19140
C          C       0.90850   0.32760   0.19140
C          C       0.67240   0.58090   0.19140
C          C       0.09150   0.41910   0.19140
C          C       0.32760   0.90850   0.19140
C          C       0.58090   0.67240   0.19140
C          C       0.42159   0.04742   0.23516
C          C       0.95258   0.37417   0.23516
C          C       0.62583   0.57841   0.23516
C          C       0.04742   0.42159   0.23516
C          C       0.37417   0.95258   0.23516
C          C       0.57841   0.62583   0.23516
C          C       0.47073   0.05305   0.25271
C          C       0.94695   0.41768   0.25271
C          C       0.58232   0.52927   0.25271
C          C       0.05305   0.47073   0.25271
C          C       0.41768   0.94695   0.25271
C          C       0.52927   0.58232   0.25271
C          C       0.51429   0.10061   0.23372
C          C       0.89939   0.41368   0.23372
C          C       0.58632   0.48571   0.23372
C          C       0.10061   0.51429   0.23372
C          C       0.41368   0.89939   0.23372
C          C       0.48571   0.58632   0.23372
C          C       0.36496   0.80591   0.19616
C          C       0.19409   0.55905   0.19616
C          C       0.44095   0.63504   0.19616
C          C       0.80591   0.36496   0.19616
C          C       0.55905   0.19409   0.19616
C          C       0.63504   0.44095   0.19616
C          C       0.32616   0.75874   0.24386
C          C       0.24126   0.56742   0.24386
C          C       0.43258   0.67384   0.24386
C          C       0.75874   0.32616   0.24386
C          C       0.56742   0.24126   0.24386
C          C       0.67384   0.43258   0.24386
C          C       0.27827   0.75152   0.31267
C          C       0.24848   0.52675   0.31267
C          C       0.47325   0.72173   0.31267
C          C       0.75152   0.27827   0.31267
C          C       0.52675   0.24848   0.31267
C          C       0.72173   0.47325   0.31267
C          C       0.33040   0.71183   0.23761
C          C       0.28817   0.61857   0.23761
C          C       0.38143   0.66960   0.23761
C          C       0.71183   0.33040   0.23761
C          C       0.61857   0.28817   0.23761
C          C       0.66960   0.38143   0.23761
C          C       0.28594   0.66378   0.23776
C          C       0.33622   0.62216   0.23776
C          C       0.37784   0.71406   0.23776
C          C       0.66378   0.28594   0.23776
C          C       0.62216   0.33622   0.23776
C          C       0.71406   0.37784   0.23776
N          N       0.74440   0.24037   0.37574
N          N       0.75963   0.50403   0.37574
N          N       0.49597   0.25560   0.37574
N          N       0.24037   0.74440   0.37574
N          N       0.50403   0.75963   0.37574
N          N       0.25560   0.49597   0.37574
H          H       0.45823   0.17130   0.14021
H          H       0.82870   0.28693   0.14021
H          H       0.71307   0.54177   0.14021
H          H       0.17130   0.45823   0.14021
H          H       0.28693   0.82870   0.14021
H          H       0.54177   0.71307   0.14021
H          H       0.38265   0.08914   0.16736
H          H       0.91086   0.29351   0.16736
H          H       0.70649   0.61735   0.16736
H          H       0.08914   0.38265   0.16736
H          H       0.29351   0.91086   0.16736
H          H       0.61735   0.70649   0.16736
H          H       0.55137   0.10377   0.25121
H          H       0.89623   0.44760   0.25121
H          H       0.55240   0.44863   0.25121
H          H       0.10377   0.55137   0.25121
H          H       0.44760   0.89623   0.25121
H          H       0.44863   0.55240   0.25121
H          H       0.40078   0.80868   0.15440
H          H       0.19132   0.59210   0.15440
H          H       0.40790   0.59922   0.15440
H          H       0.80868   0.40078   0.15440
H          H       0.59210   0.19132   0.15440
H          H       0.59922   0.40790   0.15440
H          H       0.24927   0.66195   0.24024
H          H       0.33805   0.58732   0.24024
H          H       0.41268   0.75073   0.24024
H          H       0.66195   0.24927   0.24024
H          H       0.58732   0.33805   0.24024
H          H       0.75073   0.41268   0.24024
H          H       0.69520   0.66173   0.38878
H          H       0.33827   0.03347   0.38878
H          H       0.96653   0.30480   0.38878
H          H       0.66173   0.69520   0.38878
H          H       0.03347   0.33827   0.38878
H          H       0.30480   0.96653   0.38878
N          N       0.37650   0.00000   0.25999
N          N       0.00000   0.37650   0.25999
N          N       0.62350   0.62350   0.25999
S          S       0.47885   0.00000   0.30786
S          S       0.00000   0.47885   0.30786
S          S       0.52115   0.52115   0.30786
C          C       0.00000   0.32964   0.30680
C          C       0.67036   0.67036   0.30680
C          C       0.32964   0.00000   0.30680
H          H       0.69264   0.69264   0.18761
H          H       0.30736   0.00000   0.18761
H          H       0.00000   0.30736   0.18761
C          C       0.51142   0.14512   0.70229
C          C       0.85488   0.36630   0.70229
C          C       0.63370   0.48858   0.70229
C          C       0.14512   0.51142   0.70229
C          C       0.36630   0.85488   0.70229
C          C       0.48858   0.63370   0.70229
C          C       0.46270   0.13912   0.67688
C          C       0.86088   0.32358   0.67688
C          C       0.67642   0.53730   0.67688
C          C       0.13912   0.46270   0.67688
C          C       0.32358   0.86088   0.67688
C          C       0.53730   0.67642   0.67688
C          C       0.41910   0.09150   0.69140
C          C       0.90850   0.32760   0.69140
C          C       0.67240   0.58090   0.69140
C          C       0.09150   0.41910   0.69140
C          C       0.32760   0.90850   0.69140
C          C       0.58090   0.67240   0.69140
C          C       0.42159   0.04742   0.73516
C          C       0.95258   0.37417   0.73516
C          C       0.62583   0.57841   0.73516
C          C       0.04742   0.42159   0.73516
C          C       0.37417   0.95258   0.73516
C          C       0.57841   0.62583   0.73516
C          C       0.47073   0.05305   0.75270
C          C       0.94695   0.41768   0.75270
C          C       0.58232   0.52927   0.75270
C          C       0.05305   0.47073   0.75270
C          C       0.41768   0.94695   0.75270
C          C       0.52927   0.58232   0.75270
C          C       0.51429   0.10061   0.73372
C          C       0.89939   0.41368   0.73372
C          C       0.58632   0.48571   0.73372
C          C       0.10061   0.51429   0.73372
C          C       0.41368   0.89939   0.73372
C          C       0.48571   0.58632   0.73372
C          C       0.36496   0.80591   0.69616
C          C       0.19409   0.55905   0.69616
C          C       0.44095   0.63504   0.69616
C          C       0.80591   0.36496   0.69616
C          C       0.55905   0.19409   0.69616
C          C       0.63504   0.44095   0.69616
C          C       0.32616   0.75874   0.74386
C          C       0.24126   0.56742   0.74386
C          C       0.43258   0.67384   0.74386
C          C       0.75874   0.32616   0.74386
C          C       0.56742   0.24126   0.74386
C          C       0.67384   0.43258   0.74386
C          C       0.27827   0.75152   0.81268
C          C       0.24848   0.52675   0.81268
C          C       0.47325   0.72173   0.81268
C          C       0.75152   0.27827   0.81268
C          C       0.52675   0.24848   0.81268
C          C       0.72173   0.47325   0.81268
C          C       0.33040   0.71183   0.73761
C          C       0.28817   0.61857   0.73761
C          C       0.38143   0.66960   0.73761
C          C       0.71183   0.33040   0.73761
C          C       0.61857   0.28817   0.73761
C          C       0.66960   0.38143   0.73761
C          C       0.28594   0.66378   0.73776
C          C       0.33622   0.62216   0.73776
C          C       0.37784   0.71406   0.73776
C          C       0.66378   0.28594   0.73776
C          C       0.62216   0.33622   0.73776
C          C       0.71406   0.37784   0.73776
N          N       0.74440   0.24037   0.87574
N          N       0.75963   0.50403   0.87574
N          N       0.49597   0.25560   0.87574
N          N       0.24037   0.74440   0.87574
N          N       0.50403   0.75963   0.87574
N          N       0.25560   0.49597   0.87574
H          H       0.45823   0.17130   0.64021
H          H       0.82870   0.28693   0.64021
H          H       0.71307   0.54177   0.64021
H          H       0.17130   0.45823   0.64021
H          H       0.28693   0.82870   0.64021
H          H       0.54177   0.71307   0.64021
H          H       0.38265   0.08914   0.66736
H          H       0.91086   0.29351   0.66736
H          H       0.70649   0.61735   0.66736
H          H       0.08914   0.38265   0.66736
H          H       0.29351   0.91086   0.66736
H          H       0.61735   0.70649   0.66736
H          H       0.55137   0.10377   0.75121
H          H       0.89623   0.44760   0.75121
H          H       0.55240   0.44863   0.75121
H          H       0.10377   0.55137   0.75121
H          H       0.44760   0.89623   0.75121
H          H       0.44863   0.55240   0.75121
H          H       0.40078   0.80868   0.65440
H          H       0.19132   0.59210   0.65440
H          H       0.40790   0.59922   0.65440
H          H       0.80868   0.40078   0.65440
H          H       0.59210   0.19132   0.65440
H          H       0.59922   0.40790   0.65440
H          H       0.24927   0.66195   0.74023
H          H       0.33805   0.58732   0.74023
H          H       0.41268   0.75073   0.74023
H          H       0.66195   0.24927   0.74023
H          H       0.58732   0.33805   0.74023
H          H       0.75073   0.41268   0.74023
H          H       0.69520   0.66173   0.88878
H          H       0.33827   0.03347   0.88878
H          H       0.96653   0.30480   0.88878
H          H       0.66173   0.69520   0.88878
H          H       0.03347   0.33827   0.88878
H          H       0.30480   0.96653   0.88878
N          N       0.37650   0.00000   0.75999
N          N       0.00000   0.37650   0.75999
N          N       0.62350   0.62350   0.75999
S          S       0.47885   0.00000   0.80787
S          S       0.00000   0.47885   0.80787
S          S       0.52115   0.52115   0.80787
C          C       0.00000   0.32964   0.80680
C          C       0.67036   0.67036   0.80680
C          C       0.32964   0.00000   0.80680
H          H       0.69264   0.69264   0.68761
H          H       0.30736   0.00000   0.68761
H          H       0.00000   0.30736   0.68761
