data_TDFP-1
_audit_creation_date              0000-00-00
_audit_creation_method            'LanYouShi'
_symmetry_space_group_name_H-M    'P1'
_cell_length_a                    32.2005005
_cell_length_b                    32.2005005
_cell_length_c                    3.8282001
_cell_angle_alpha                 90.0000000
_cell_angle_beta                  90.0000000
_cell_angle_gamma                 120.0000000
loop_
_atom_site_label
_atom_site_type_symbol
_atom_site_fract_x
_atom_site_fract_y
_atom_site_fract_z
_atom_site_U_iso_or_equiv
_atom_site_adp_type
_atom_site_occupancy
        N1          N  0.5788936  0.6691681  0.5000056    0.00000       Uiso       1.00
        N2          N  0.6562181  0.5730610  0.5000056    0.00000       Uiso       1.00
        N3          N  0.3308316  0.9097251  0.5000056    0.00000       Uiso       1.00
        N4          N  0.4269386  0.0831570  0.5000056    0.00000       Uiso       1.00
        N5          N  0.0902745  0.4211061  0.5000056    0.00000       Uiso       1.00
        N6          N  0.9168426  0.3437816  0.5000056    0.00000       Uiso       1.00
        C1          C  0.5701217  0.7060571  0.5000056    0.00000       Uiso       1.00
        C2          C  0.6209537  0.5265617  0.5000056    0.00000       Uiso       1.00
        C3          C  0.2939426  0.8640643  0.5000056    0.00000       Uiso       1.00
        C4          C  0.4734379  0.0943919  0.5000056    0.00000       Uiso       1.00
        C5          C  0.1359354  0.4298779  0.5000056    0.00000       Uiso       1.00
        C6          C  0.9056077  0.3790460  0.5000056    0.00000       Uiso       1.00
        C7          C  0.6665293  0.7078825  0.5000056    0.00000       Uiso       1.00
        C8          C  0.6561785  0.6152741  0.5000056    0.00000       Uiso       1.00
        C9          C  0.2921172  0.9586465  0.5000056    0.00000       Uiso       1.00
       C10          C  0.3847255  0.0409044  0.5000056    0.00000       Uiso       1.00
       C11          C  0.0413532  0.3334703  0.5000056    0.00000       Uiso       1.00
       C12          C  0.9590952  0.3438211  0.5000056    0.00000       Uiso       1.00
       C13          C  0.7078679  0.7032371  0.5000056    0.00000       Uiso       1.00
       C14          C  0.6152558  0.6210225  0.5000056    0.00000       Uiso       1.00
       C15          C  0.2967626  0.0046308  0.5000056    0.00000       Uiso       1.00
       C16          C  0.3789771  0.9942329  0.5000056    0.00000       Uiso       1.00
       C17          C  0.9953688  0.2921318  0.5000056    0.00000       Uiso       1.00
       C18          C  0.0057668  0.3847439  0.5000056    0.00000       Uiso       1.00
       C19          C  0.7020745  0.6567488  0.5000056    0.00000       Uiso       1.00
       C20          C  0.6200112  0.6671678  0.5000056    0.00000       Uiso       1.00
       C21          C  0.3432509  0.0453258  0.5000056    0.00000       Uiso       1.00
       C22          C  0.3328318  0.9528430  0.5000056    0.00000       Uiso       1.00
       C23          C  0.9546739  0.2979251  0.5000056    0.00000       Uiso       1.00
       C24          C  0.0471566  0.3799885  0.5000056    0.00000       Uiso       1.00
        H1          H  0.5981848  0.7404541  0.5000056    0.00000       Uiso       1.00
        H2          H  0.5859845  0.5182070  0.5000056    0.00000       Uiso       1.00
        H3          H  0.2595456  0.8577303  0.5000056    0.00000       Uiso       1.00
        H4          H  0.4817927  0.0677775  0.5000056    0.00000       Uiso       1.00
        H5          H  0.1422693  0.4018148  0.5000056    0.00000       Uiso       1.00
        H6          H  0.9322222  0.4140152  0.5000056    0.00000       Uiso       1.00
        O1          O  0.5738217  0.5853416  0.5000056    0.00000       Uiso       1.00
        O2          O  0.4146580  0.9884797  0.5000056    0.00000       Uiso       1.00
        O3          O  0.0115199  0.4261779  0.5000056    0.00000       Uiso       1.00
       C25          C  0.3255846  0.7049956  0.5000056    0.00000       Uiso       1.00
       C26          C  0.6289715  0.2869159  0.5000056    0.00000       Uiso       1.00
       C27          C  0.2950041  0.6205887  0.5000056    0.00000       Uiso       1.00
       C28          C  0.7130838  0.3420556  0.5000056    0.00000       Uiso       1.00
       C29          C  0.3794110  0.6744151  0.5000056    0.00000       Uiso       1.00
       C30          C  0.6579440  0.3710281  0.5000056    0.00000       Uiso       1.00
        N7          N  0.2886458  0.6591636  0.5000056    0.00000       Uiso       1.00
        N8          N  0.6751319  0.2967716  0.5000056    0.00000       Uiso       1.00
        N9          N  0.3408361  0.6294819  0.5000056    0.00000       Uiso       1.00
       N10          N  0.7032281  0.3783603  0.5000056    0.00000       Uiso       1.00
       N11          N  0.3705178  0.7113539  0.5000056    0.00000       Uiso       1.00
       N12          N  0.6216394  0.3248678  0.5000056    0.00000       Uiso       1.00
       C31          C  0.3177135  0.7445131  0.5000056    0.00000       Uiso       1.00
       C32          C  0.5901281  0.2391625  0.5000056    0.00000       Uiso       1.00
       C33          C  0.2554866  0.5732000  0.5000056    0.00000       Uiso       1.00
       C34          C  0.7608372  0.3509656  0.5000056    0.00000       Uiso       1.00
       C35          C  0.4267996  0.6822862  0.5000056    0.00000       Uiso       1.00
       C36          C  0.6490340  0.4098715  0.5000056    0.00000       Uiso       1.00
       C37          C  0.4356370  0.6433653  0.5000056    0.00000       Uiso       1.00
       C38          C  0.6871218  0.4580889  0.5000056    0.00000       Uiso       1.00
       C39          C  0.3566343  0.7922714  0.5000056    0.00000       Uiso       1.00
       C40          C  0.5419107  0.2290329  0.5000056    0.00000       Uiso       1.00
       C41          C  0.2077283  0.5643626  0.5000056    0.00000       Uiso       1.00
       C42          C  0.7709668  0.3128778  0.5000056    0.00000       Uiso       1.00
       C43          C  0.4826060  0.6509781  0.5000056    0.00000       Uiso       1.00
       C44          C  0.6782473  0.4966743  0.5000056    0.00000       Uiso       1.00
       C45          C  0.3490216  0.8316276  0.5000056    0.00000       Uiso       1.00
       C46          C  0.5033253  0.1815730  0.5000056    0.00000       Uiso       1.00
       C47          C  0.1683721  0.5173936  0.5000056    0.00000       Uiso       1.00
       C48          C  0.8184266  0.3217523  0.5000056    0.00000       Uiso       1.00
       C49          C  0.5228122  0.6978583  0.5000056    0.00000       Uiso       1.00
       C50          C  0.6308705  0.4886040  0.5000056    0.00000       Uiso       1.00
       C51          C  0.3021413  0.8249536  0.5000056    0.00000       Uiso       1.00
       C52          C  0.5113956  0.1422665  0.5000056    0.00000       Uiso       1.00
       C53          C  0.1750461  0.4771874  0.5000056    0.00000       Uiso       1.00
       C54          C  0.8577332  0.3691292  0.5000056    0.00000       Uiso       1.00
       C55          C  0.5142816  0.7368659  0.5000056    0.00000       Uiso       1.00
       C56          C  0.5927234  0.4406055  0.5000056    0.00000       Uiso       1.00
       C57          C  0.2631338  0.7774155  0.5000056    0.00000       Uiso       1.00
       C58          C  0.5593941  0.1521178  0.5000056    0.00000       Uiso       1.00
       C59          C  0.2225842  0.4857180  0.5000056    0.00000       Uiso       1.00
       C60          C  0.8478818  0.4072763  0.5000056    0.00000       Uiso       1.00
       C61          C  0.4672409  0.7292106  0.5000056    0.00000       Uiso       1.00
       C62          C  0.6016367  0.4020763  0.5000056    0.00000       Uiso       1.00
       C63          C  0.2707890  0.7380300  0.5000056    0.00000       Uiso       1.00
       C64          C  0.5979233  0.1995604  0.5000056    0.00000       Uiso       1.00
       C65          C  0.2619697  0.5327587  0.5000056    0.00000       Uiso       1.00
       C66          C  0.8004392  0.3983629  0.5000056    0.00000       Uiso       1.00
        H7          H  0.4078059  0.6087530  0.5000056    0.00000       Uiso       1.00
        H8          H  0.7220206  0.4657431  0.5000056    0.00000       Uiso       1.00
        H9          H  0.3912467  0.7990526  0.5000056    0.00000       Uiso       1.00
       H10          H  0.5342566  0.2562775  0.5000056    0.00000       Uiso       1.00
       H11          H  0.2009471  0.5921938  0.5000056    0.00000       Uiso       1.00
       H12          H  0.7437221  0.2779791  0.5000056    0.00000       Uiso       1.00
       H13          H  0.4872987  0.6217880  0.5000056    0.00000       Uiso       1.00
       H14          H  0.7067865  0.5309560  0.5000056    0.00000       Uiso       1.00
       H15          H  0.3782116  0.8655104  0.5000056    0.00000       Uiso       1.00
       H16          H  0.4690437  0.1758305  0.5000056    0.00000       Uiso       1.00
       H17          H  0.1344893  0.5127010  0.5000056    0.00000       Uiso       1.00
       H18          H  0.8241692  0.2932132  0.5000056    0.00000       Uiso       1.00
       H19          H  0.5423647  0.7713662  0.5000056    0.00000       Uiso       1.00
       H20          H  0.5578734  0.4331675  0.5000056    0.00000       Uiso       1.00
       H21          H  0.2286334  0.7709981  0.5000056    0.00000       Uiso       1.00
       H22          H  0.5668322  0.1247059  0.5000056    0.00000       Uiso       1.00
       H23          H  0.2290016  0.4576349  0.5000056    0.00000       Uiso       1.00
       H24          H  0.8752937  0.4421263  0.5000056    0.00000       Uiso       1.00
       H25          H  0.4629008  0.7585870  0.5000056    0.00000       Uiso       1.00
       H26          H  0.5728019  0.3680139  0.5000056    0.00000       Uiso       1.00
       H27          H  0.2414127  0.7043136  0.5000056    0.00000       Uiso       1.00
       H28          H  0.6319857  0.2047879  0.5000056    0.00000       Uiso       1.00
       H29          H  0.2956861  0.5370988  0.5000056    0.00000       Uiso       1.00
       H30          H  0.7952117  0.4271978  0.5000056    0.00000       Uiso       1.00
       H31          H  0.7602500  0.7688027  0.2761423    0.00000       Uiso       1.00
       H32          H  0.2311970  0.9914470  0.2761423    0.00000       Uiso       1.00
       H33          H  0.0085527  0.2397497  0.2761423    0.00000       Uiso       1.00
       H34          H  0.7602500  0.7688027  0.7238688    0.00000       Uiso       1.00
       H35          H  0.2311970  0.9914470  0.7238688    0.00000       Uiso       1.00
       H36          H  0.0085527  0.2397497  0.7238688    0.00000       Uiso       1.00
       H37          H  0.7319103  0.6530929  0.5000056    0.00000       Uiso       1.00
       H38          H  0.6706498  0.7414654  0.5000056    0.00000       Uiso       1.00
       C67          C  0.7560620  0.7467065  0.5000056    0.00000       Uiso       1.00
       H39          H  0.7849798  0.7383077  0.5000056    0.00000       Uiso       1.00
       H40          H  0.3469068  0.0788174  0.5000056    0.00000       Uiso       1.00
       H41          H  0.2585343  0.9291841  0.5000056    0.00000       Uiso       1.00
       C68          C  0.2532932  0.0093555  0.5000056    0.00000       Uiso       1.00
       H42          H  0.2616920  0.0466721  0.5000056    0.00000       Uiso       1.00
       H43          H  0.9211823  0.2680894  0.5000056    0.00000       Uiso       1.00
       H44          H  0.0708156  0.3293498  0.5000056    0.00000       Uiso       1.00
       C69          C  0.9906441  0.2439376  0.5000056    0.00000       Uiso       1.00
       H45          H  0.9533275  0.2150199  0.5000056    0.00000       Uiso       1.00
