data_TfBD
_audit_creation_date              0000-00-00
_audit_creation_method            'LanYouShi'
_symmetry_space_group_name_H-M    'P1'
_cell_length_a                    30.1485996
_cell_length_b                    30.1485996
_cell_length_c                    3.5373001
_cell_angle_alpha                 90.0000000
_cell_angle_beta                  90.0000000
_cell_angle_gamma                 120.0000000
loop_
_atom_site_label
_atom_site_type_symbol
_atom_site_fract_x
_atom_site_fract_y
_atom_site_fract_z
_atom_site_U_iso_or_equiv
_atom_site_adp_type
_atom_site_occupancy
        C1          C  0.7040595  0.3187139  0.4999933    0.00000       Uiso       1.00
        C2          C  0.7196340  0.3714342  0.4999933    0.00000       Uiso       1.00
        H1          H  0.7314812  0.3081297  0.4999933    0.00000       Uiso       1.00
        C1          C  0.3481998  0.7196340  0.4999933    0.00000       Uiso       1.00
        C2          C  0.3853455  0.7040594  0.4999933    0.00000       Uiso       1.00
        H1          H  0.4233515  0.7314813  0.4999933    0.00000       Uiso       1.00
        C1          C  0.6812859  0.3853455  0.4999933    0.00000       Uiso       1.00
        C2          C  0.6285656  0.3481998  0.4999933    0.00000       Uiso       1.00
        H1          H  0.6918700  0.4233515  0.4999933    0.00000       Uiso       1.00
        C1          C  0.2803658  0.6285656  0.4999933    0.00000       Uiso       1.00
        C2          C  0.2959403  0.6812858  0.4999933    0.00000       Uiso       1.00
        H1          H  0.2685185  0.6918700  0.4999933    0.00000       Uiso       1.00
        C1          C  0.6146542  0.2959403  0.4999933    0.00000       Uiso       1.00
        C2          C  0.6517999  0.2803658  0.4999933    0.00000       Uiso       1.00
        H1          H  0.5766482  0.2685185  0.4999933    0.00000       Uiso       1.00
        C1          C  0.3714342  0.6517999  0.4999933    0.00000       Uiso       1.00
        C2          C  0.3187139  0.6146542  0.4999933    0.00000       Uiso       1.00
        H1          H  0.3081297  0.5766482  0.4999933    0.00000       Uiso       1.00
        O1          C  0.7717692  0.4097268  0.4999933    0.00000       Uiso       1.00
         H          H  0.7811346  0.4473363  0.4999933    0.00000       Uiso       1.00
        O1          C  0.5902729  0.3620424  0.4999933    0.00000       Uiso       1.00
         H          H  0.5526634  0.3337983  0.4999933    0.00000       Uiso       1.00
        O1          C  0.6379573  0.2282306  0.4999933    0.00000       Uiso       1.00
         H          H  0.6662015  0.2188651  0.4999933    0.00000       Uiso       1.00
        O1          C  0.2282306  0.5902729  0.4999933    0.00000       Uiso       1.00
         H          H  0.2188651  0.5526634  0.4999933    0.00000       Uiso       1.00
        O1          C  0.4097268  0.6379573  0.4999933    0.00000       Uiso       1.00
         H          H  0.4473363  0.6662015  0.4999933    0.00000       Uiso       1.00
        O1          C  0.3620424  0.7717692  0.4999933    0.00000       Uiso       1.00
         H          H  0.3337983  0.7811346  0.4999933    0.00000       Uiso       1.00
        B1          N  0.8095077  0.3978611  0.4999933    0.00000       Uiso       1.00
        B1          N  0.6021386  0.4116465  0.4999933    0.00000       Uiso       1.00
        B1          N  0.5883532  0.1904921  0.4999933    0.00000       Uiso       1.00
        B1          N  0.1904921  0.6021386  0.4999933    0.00000       Uiso       1.00
        B1          N  0.3978611  0.5883532  0.4999933    0.00000       Uiso       1.00
        B1          N  0.4116465  0.8095076  0.4999933    0.00000       Uiso       1.00
        C1          C  0.1388312  0.5720322  0.4999933    0.00000       Uiso       1.00
        C2          C  0.4279675  0.5667987  0.4999933    0.00000       Uiso       1.00
        C3          C  0.4332010  0.8611686  0.4999933    0.00000       Uiso       1.00
        C4          C  0.8611686  0.4279675  0.4999933    0.00000       Uiso       1.00
        C5          C  0.5720322  0.4332010  0.4999933    0.00000       Uiso       1.00
        C6          C  0.5667987  0.1388312  0.4999933    0.00000       Uiso       1.00
        C7          C  0.1101023  0.5969979  0.4999933    0.00000       Uiso       1.00
        C8          C  0.5939649  0.1120860  0.4999933    0.00000       Uiso       1.00
        C9          C  0.4030019  0.5131042  0.4999933    0.00000       Uiso       1.00
       C10          C  0.8879137  0.4818788  0.4999933    0.00000       Uiso       1.00
       C11          C  0.4868955  0.8898975  0.4999933    0.00000       Uiso       1.00
       C12          C  0.5181209  0.4060349  0.4999933    0.00000       Uiso       1.00
       C13          C  0.8898974  0.4030019  0.4999933    0.00000       Uiso       1.00
       C14          C  0.4060349  0.8879137  0.4999933    0.00000       Uiso       1.00
       C15          C  0.5969979  0.4868955  0.4999933    0.00000       Uiso       1.00
       C16          C  0.1120860  0.5181209  0.4999933    0.00000       Uiso       1.00
       C17          C  0.5131042  0.1101023  0.4999933    0.00000       Uiso       1.00
       C18          C  0.4818788  0.5939649  0.4999933    0.00000       Uiso       1.00
       C19          C  0.0581612  0.4903377  0.4999933    0.00000       Uiso       1.00
       C20          C  0.4872524  0.0561991  0.4999933    0.00000       Uiso       1.00
       C21          C  0.5096620  0.5678232  0.4999933    0.00000       Uiso       1.00
       C22          C  0.9438007  0.4310533  0.4999933    0.00000       Uiso       1.00
       C23          C  0.4321765  0.9418385  0.4999933    0.00000       Uiso       1.00
       C24          C  0.5689464  0.5127473  0.4999933    0.00000       Uiso       1.00
       C25          C  0.9418386  0.5096620  0.4999933    0.00000       Uiso       1.00
       C26          C  0.5127473  0.9438006  0.4999933    0.00000       Uiso       1.00
       C27          C  0.4903377  0.4321766  0.4999933    0.00000       Uiso       1.00
       C28          C  0.0561991  0.5689464  0.4999933    0.00000       Uiso       1.00
       C29          C  0.5678232  0.0581612  0.4999933    0.00000       Uiso       1.00
       C30          C  0.4310533  0.4872524  0.4999933    0.00000       Uiso       1.00
        H1          H  0.1285255  0.6361637  0.4999933    0.00000       Uiso       1.00
        H2          H  0.6330203  0.1315104  0.4999933    0.00000       Uiso       1.00
        H3          H  0.3638361  0.4923615  0.4999933    0.00000       Uiso       1.00
        H4          H  0.8684893  0.5015100  0.4999933    0.00000       Uiso       1.00
        H5          H  0.5076382  0.8714743  0.4999933    0.00000       Uiso       1.00
        H6          H  0.4984898  0.3669794  0.4999933    0.00000       Uiso       1.00
        H7          H  0.8714743  0.3638361  0.4999933    0.00000       Uiso       1.00
        H8          H  0.3669794  0.8684893  0.4999933    0.00000       Uiso       1.00
        H9          H  0.6361637  0.5076382  0.4999933    0.00000       Uiso       1.00
       H10          H  0.1315104  0.4984898  0.4999933    0.00000       Uiso       1.00
       H11          H  0.4923615  0.1285255  0.4999933    0.00000       Uiso       1.00
       H12          H  0.5015099  0.6330203  0.4999933    0.00000       Uiso       1.00
       C31          C  0.0275882  0.5143019  0.4999933    0.00000       Uiso       1.00
       C32          C  0.4856978  0.5132860  0.4999933    0.00000       Uiso       1.00
       C33          C  0.4867137  0.9724115  0.4999933    0.00000       Uiso       1.00
       C34          C  0.9724116  0.4856978  0.4999933    0.00000       Uiso       1.00
       C35          C  0.5143019  0.4867137  0.4999933    0.00000       Uiso       1.00
       C36          C  0.5132861  0.0275882  0.4999933    0.00000       Uiso       1.00
       H13          H  0.9576762  0.5483615  0.4999933    0.00000       Uiso       1.00
       H14          H  0.5515766  0.9610763  0.4999933    0.00000       Uiso       1.00
       H15          H  0.4516382  0.4093147  0.4999933    0.00000       Uiso       1.00
       H16          H  0.0389234  0.5905001  0.4999933    0.00000       Uiso       1.00
       H17          H  0.5906851  0.0423235  0.4999933    0.00000       Uiso       1.00
       H18          H  0.4094997  0.4484231  0.4999933    0.00000       Uiso       1.00
       H19          H  0.0423235  0.4516382  0.4999933    0.00000       Uiso       1.00
       H20          H  0.4484231  0.0389234  0.4999933    0.00000       Uiso       1.00
       H21          H  0.5483615  0.5906851  0.4999933    0.00000       Uiso       1.00
       H22          H  0.9610763  0.4094997  0.4999933    0.00000       Uiso       1.00
       H23          H  0.4093147  0.9576762  0.4999933    0.00000       Uiso       1.00
       H24          H  0.5905001  0.5515766  0.4999933    0.00000       Uiso       1.00
