data_BDT-OEt_COF
_audit_creation_date              0000-00-00
_audit_creation_method            'LanYouShi'
_symmetry_space_group_name_H-M    'P1'
_cell_length_a                    36.9500008
_cell_length_b                    36.9500008
_cell_length_c                    3.5400000
_cell_angle_alpha                 90.0000000
_cell_angle_beta                  90.0000000
_cell_angle_gamma                 120.0000000
loop_
_atom_site_label
_atom_site_type_symbol
_atom_site_fract_x
_atom_site_fract_y
_atom_site_fract_z
_atom_site_U_iso_or_equiv
_atom_site_adp_type
_atom_site_occupancy
        C1          C  0.7042431  0.3734695  0.5000000    0.00000       Uiso       1.00
        C2          C  0.7069975  0.3363776  0.5000000    0.00000       Uiso       1.00
        C3          C  0.7465264  0.3391683  0.5000000    0.00000       Uiso       1.00
        C4          C  0.7812063  0.3779914  0.5000000    0.00000       Uiso       1.00
        C5          C  0.7785707  0.4143971  0.5000000    0.00000       Uiso       1.00
        C6          C  0.7410055  0.4130731  0.5000000    0.00000       Uiso       1.00
        O1          O  0.8182808  0.4488953  0.5000000    0.00000       Uiso       1.00
        B1          B  0.8447046  0.4319776  0.5000000    0.00000       Uiso       1.00
        O2          O  0.8224339  0.3881622  0.5000000    0.00000       Uiso       1.00
        C7          C  0.8917915  0.4559168  0.5000000    0.00000       Uiso       1.00
        S1          S  0.9213847  0.5103676  0.5000000    0.00000       Uiso       1.00
        C8          C  0.9675449  0.5084248  0.5000000    0.00000       Uiso       1.00
        C9          C  0.9593261  0.4661598  0.5000000    0.00000       Uiso       1.00
       C10          C  0.9159028  0.4372991  0.5000000    0.00000       Uiso       1.00
       C11          C  0.0077202  0.5422007  0.5000000    0.00000       Uiso       1.00
       C12          C  0.6265304  0.3307736  0.5000000    0.00000       Uiso       1.00
       C13          C  0.6636224  0.3706198  0.5000000    0.00000       Uiso       1.00
       C14          C  0.6608316  0.4073581  0.5000000    0.00000       Uiso       1.00
       C15          C  0.6220086  0.4032149  0.5000000    0.00000       Uiso       1.00
       C16          C  0.5856029  0.3641736  0.5000000    0.00000       Uiso       1.00
       C17          C  0.5869269  0.3279325  0.5000000    0.00000       Uiso       1.00
        O3          O  0.5511047  0.3693856  0.5000000    0.00000       Uiso       1.00
        B2          B  0.5680224  0.4127270  0.5000000    0.00000       Uiso       1.00
        O4          O  0.6118377  0.4342717  0.5000000    0.00000       Uiso       1.00
       C18          C  0.5440832  0.4358747  0.5000000    0.00000       Uiso       1.00
        S2          S  0.4896324  0.4110171  0.5000000    0.00000       Uiso       1.00
       C19          C  0.4915751  0.4591201  0.5000000    0.00000       Uiso       1.00
       C20          C  0.5338402  0.4931663  0.5000000    0.00000       Uiso       1.00
       C21          C  0.5627009  0.4786037  0.5000000    0.00000       Uiso       1.00
       C22          C  0.4577993  0.4655195  0.5000000    0.00000       Uiso       1.00
       C23          C  0.6692263  0.2957568  0.5000000    0.00000       Uiso       1.00
       C24          C  0.6293802  0.2930025  0.5000000    0.00000       Uiso       1.00
       C25          C  0.5926419  0.2534736  0.5000000    0.00000       Uiso       1.00
       C26          C  0.5967851  0.2187937  0.5000000    0.00000       Uiso       1.00
       C27          C  0.6358263  0.2214293  0.5000000    0.00000       Uiso       1.00
       C28          C  0.6720675  0.2589944  0.5000000    0.00000       Uiso       1.00
        O5          O  0.6306144  0.1817191  0.5000000    0.00000       Uiso       1.00
        B3          B  0.5872731  0.1552954  0.5000000    0.00000       Uiso       1.00
        O6          O  0.5657282  0.1775661  0.5000000    0.00000       Uiso       1.00
       C29          C  0.5641253  0.1082085  0.5000000    0.00000       Uiso       1.00
        S3          S  0.5889828  0.0786153  0.5000000    0.00000       Uiso       1.00
       C30          C  0.5408799  0.0324551  0.5000000    0.00000       Uiso       1.00
       C31          C  0.5068337  0.0406739  0.5000000    0.00000       Uiso       1.00
       C32          C  0.5213963  0.0840972  0.5000000    0.00000       Uiso       1.00
       C33          C  0.5344805  0.9922798  0.5000000    0.00000       Uiso       1.00
       C34          C  0.2957568  0.6265304  0.5000000    0.00000       Uiso       1.00
       C35          C  0.2930025  0.6636224  0.5000000    0.00000       Uiso       1.00
       C36          C  0.2534736  0.6608316  0.5000000    0.00000       Uiso       1.00
       C37          C  0.2187937  0.6220086  0.5000000    0.00000       Uiso       1.00
       C38          C  0.2214293  0.5856029  0.5000000    0.00000       Uiso       1.00
       C39          C  0.2589944  0.5869269  0.5000000    0.00000       Uiso       1.00
        O7          O  0.1817192  0.5511047  0.5000000    0.00000       Uiso       1.00
        B4          B  0.1552954  0.5680224  0.5000000    0.00000       Uiso       1.00
        O8          O  0.1775661  0.6118377  0.5000000    0.00000       Uiso       1.00
       C40          C  0.1082085  0.5440832  0.5000000    0.00000       Uiso       1.00
        S4          S  0.0786153  0.4896325  0.5000000    0.00000       Uiso       1.00
       C41          C  0.0324551  0.4915751  0.5000000    0.00000       Uiso       1.00
       C42          C  0.0406739  0.5338402  0.5000000    0.00000       Uiso       1.00
       C43          C  0.0840972  0.5627009  0.5000000    0.00000       Uiso       1.00
       C44          C  0.9922798  0.4577993  0.5000000    0.00000       Uiso       1.00
       C45          C  0.3734695  0.6692263  0.5000000    0.00000       Uiso       1.00
       C46          C  0.3363776  0.6293801  0.5000000    0.00000       Uiso       1.00
       C47          C  0.3391683  0.5926419  0.5000000    0.00000       Uiso       1.00
       C48          C  0.3779914  0.5967851  0.5000000    0.00000       Uiso       1.00
       C49          C  0.4143971  0.6358264  0.5000000    0.00000       Uiso       1.00
       C50          C  0.4130731  0.6720675  0.5000000    0.00000       Uiso       1.00
        O9          O  0.4488952  0.6306144  0.5000000    0.00000       Uiso       1.00
        B5          B  0.4319776  0.5872730  0.5000000    0.00000       Uiso       1.00
       O10          O  0.3881622  0.5657283  0.5000000    0.00000       Uiso       1.00
       C51          C  0.4559168  0.5641253  0.5000000    0.00000       Uiso       1.00
        S5          S  0.5103675  0.5889828  0.5000000    0.00000       Uiso       1.00
       C52          C  0.5084249  0.5408799  0.5000000    0.00000       Uiso       1.00
       C53          C  0.4661598  0.5068337  0.5000000    0.00000       Uiso       1.00
       C54          C  0.4372991  0.5213963  0.5000000    0.00000       Uiso       1.00
       C55          C  0.5422007  0.5344805  0.5000000    0.00000       Uiso       1.00
       C56          C  0.3307737  0.7042432  0.5000000    0.00000       Uiso       1.00
       C57          C  0.3706198  0.7069975  0.5000000    0.00000       Uiso       1.00
       C58          C  0.4073581  0.7465264  0.5000000    0.00000       Uiso       1.00
       C59          C  0.4032149  0.7812063  0.5000000    0.00000       Uiso       1.00
       C60          C  0.3641736  0.7785707  0.5000000    0.00000       Uiso       1.00
       C61          C  0.3279325  0.7410055  0.5000000    0.00000       Uiso       1.00
       O11          O  0.3693855  0.8182808  0.5000000    0.00000       Uiso       1.00
        B6          B  0.4127270  0.8447046  0.5000000    0.00000       Uiso       1.00
       O12          O  0.4342717  0.8224339  0.5000000    0.00000       Uiso       1.00
       C62          C  0.4358747  0.8917915  0.5000000    0.00000       Uiso       1.00
        S6          S  0.4110172  0.9213847  0.5000000    0.00000       Uiso       1.00
       C63          C  0.4591201  0.9675449  0.5000000    0.00000       Uiso       1.00
       C64          C  0.4931663  0.9593260  0.5000000    0.00000       Uiso       1.00
       C65          C  0.4786037  0.9159027  0.5000000    0.00000       Uiso       1.00
       C66          C  0.4655195  0.0077202  0.5000000    0.00000       Uiso       1.00
        H1          H  0.7503398  0.3118770  0.5000000    0.00000       Uiso       1.00
        H2          H  0.7403488  0.4421014  0.5000000    0.00000       Uiso       1.00
        H3          H  0.9024771  0.4034935  0.5000000    0.00000       Uiso       1.00
        H4          H  0.6881229  0.4384628  0.5000000    0.00000       Uiso       1.00
        H5          H  0.5578985  0.2982473  0.5000000    0.00000       Uiso       1.00
        H6          H  0.5965065  0.4989837  0.5000000    0.00000       Uiso       1.00
        H7          H  0.5615371  0.2496601  0.5000000    0.00000       Uiso       1.00
        H8          H  0.7017527  0.2596512  0.5000000    0.00000       Uiso       1.00
        H9          H  0.5010163  0.0975228  0.5000000    0.00000       Uiso       1.00
       H10          H  0.2496601  0.6881229  0.5000000    0.00000       Uiso       1.00
       H11          H  0.2596512  0.5578985  0.5000000    0.00000       Uiso       1.00
       H12          H  0.0975228  0.5965065  0.5000000    0.00000       Uiso       1.00
       H13          H  0.3118770  0.5615371  0.5000000    0.00000       Uiso       1.00
       H14          H  0.4421014  0.7017527  0.5000000    0.00000       Uiso       1.00
       H15          H  0.4034935  0.5010163  0.5000000    0.00000       Uiso       1.00
       H16          H  0.4384628  0.7503399  0.5000000    0.00000       Uiso       1.00
       H17          H  0.2982473  0.7403488  0.5000000    0.00000       Uiso       1.00
       H18          H  0.4989837  0.9024772  0.5000000    0.00000       Uiso       1.00
       O13          O  0.5866290  0.5704651  0.5000000    0.00000       Uiso       1.00
       C67          C  0.5863612  0.6112162  0.5000000    0.00000       Uiso       1.00
       C68          C  0.6313993  0.6484755  0.4967202    0.00000       Uiso       1.00
       H19          H  0.5696169  0.6129172  0.7638832    0.00000       Uiso       1.00
       H20          H  0.5691472  0.6127195  0.2383757    0.00000       Uiso       1.00
       H21          H  0.6481962  0.6470836  0.2316840    0.00000       Uiso       1.00
       H22          H  0.6487685  0.6471198  0.7576349    0.00000       Uiso       1.00
       H23          H  0.6305701  0.6789007  0.4983765    0.00000       Uiso       1.00
       O14          O  0.4133710  0.4295348  0.5000000    0.00000       Uiso       1.00
       C69          C  0.4136388  0.3887838  0.5000000    0.00000       Uiso       1.00
       C70          C  0.3686007  0.3515246  0.4967202    0.00000       Uiso       1.00
       H24          H  0.4303831  0.3870827  0.7638832    0.00000       Uiso       1.00
       H25          H  0.4308528  0.3872804  0.2383757    0.00000       Uiso       1.00
       H26          H  0.3518038  0.3529164  0.2316840    0.00000       Uiso       1.00
       H27          H  0.3512314  0.3528802  0.7576349    0.00000       Uiso       1.00
       H28          H  0.3694299  0.3210993  0.4983765    0.00000       Uiso       1.00
       O15          O  0.0161638  0.5866290  0.5000000    0.00000       Uiso       1.00
       C71          C -0.0248550  0.5863612  0.5000000    0.00000       Uiso       1.00
       C72          C -0.0170761  0.6313993  0.4967202    0.00000       Uiso       1.00
       H29          H -0.0433003  0.5696169  0.7638832    0.00000       Uiso       1.00
       H30          H -0.0435723  0.5691472  0.2383757    0.00000       Uiso       1.00
       H31          H  0.0011126  0.6481962  0.2316840    0.00000       Uiso       1.00
       H32          H  0.0016488  0.6487686  0.7576349    0.00000       Uiso       1.00
       H33          H -0.0483307  0.6305700  0.4983765    0.00000       Uiso       1.00
       O16          O  0.5704651  0.9838362  0.5000000    0.00000       Uiso       1.00
       C73          C  0.6112162  1.0248550  0.5000000    0.00000       Uiso       1.00
       C74          C  0.6484755  1.0170761  0.4967202    0.00000       Uiso       1.00
       H34          H  0.6129172  1.0433004  0.7638832    0.00000       Uiso       1.00
       H35          H  0.6127195  1.0435724  0.2383757    0.00000       Uiso       1.00
       H36          H  0.6470836  0.9988874  0.2316840    0.00000       Uiso       1.00
       H37          H  0.6471198  0.9983512  0.7576349    0.00000       Uiso       1.00
       H38          H  0.6789007  1.0483307  0.4983765    0.00000       Uiso       1.00
       O17          O  0.4295348  0.0161638  0.5000000    0.00000       Uiso       1.00
       C75          C  0.3887838 -0.0248550  0.5000000    0.00000       Uiso       1.00
       C76          C  0.3515246 -0.0170761  0.4967202    0.00000       Uiso       1.00
       H39          H  0.3870827 -0.0433004  0.7638832    0.00000       Uiso       1.00
       H40          H  0.3872805 -0.0435723  0.2383757    0.00000       Uiso       1.00
       H41          H  0.3529164  0.0011126  0.2316840    0.00000       Uiso       1.00
       H42          H  0.3528802  0.0016488  0.7576349    0.00000       Uiso       1.00
       H43          H  0.3210993 -0.0483306  0.4983765    0.00000       Uiso       1.00
       O18          O  0.9838362  0.4133710  0.5000000    0.00000       Uiso       1.00
       C77          C  1.0248550  0.4136388  0.5000000    0.00000       Uiso       1.00
       C78          C  1.0170761  0.3686007  0.4967202    0.00000       Uiso       1.00
       H44          H  1.0433003  0.4303831  0.7638832    0.00000       Uiso       1.00
       H45          H  1.0435723  0.4308528  0.2383757    0.00000       Uiso       1.00
       H46          H  0.9988874  0.3518038  0.2316840    0.00000       Uiso       1.00
       H47          H  0.9983512  0.3512314  0.7576349    0.00000       Uiso       1.00
       H48          H  1.0483307  0.3694300  0.4983765    0.00000       Uiso       1.00
