data_crystal
 
_cell_length_a    22.77910
_cell_length_b    22.77910
_cell_length_c    3.56650
_cell_angle_alpha 90.00000
_cell_angle_beta  90.00000
_cell_angle_gamma 120.00000
 
_symmetry_space_group_name_Hall 'P 1'
_symmetry_space_group_name_H-M  'P 1'
 
loop_
_symmetry_equiv_pos_as_xyz
 'x,y,z' 
 
loop_
_atom_site_label
_atom_site_type_symbol
_atom_site_fract_x
_atom_site_fract_y
_atom_site_fract_z
_atom_site_charge
C          C       0.73585   0.38320   0.49999   0.0000000000
C          C       0.61679   0.35264   0.49999   0.0000000000
C          C       0.64736   0.26415   0.49999   0.0000000000
C          C       0.26415   0.61679   0.49999   0.0000000000
C          C       0.38320   0.64736   0.49999   0.0000000000
C          C       0.35264   0.73585   0.49999   0.0000000000
C          C       0.68594   0.40207   0.49999   0.0000000000
C          C       0.59793   0.28387   0.49999   0.0000000000
C          C       0.71613   0.31406   0.49999   0.0000000000
C          C       0.31406   0.59793   0.49999   0.0000000000
C          C       0.40207   0.71613   0.49999   0.0000000000
C          C       0.28387   0.68594   0.49999   0.0000000000
C          C       0.80816   0.43611   0.49999   0.0000000000
C          C       0.56388   0.37205   0.49999   0.0000000000
C          C       0.62795   0.19184   0.49999   0.0000000000
C          C       0.19184   0.56388   0.49999   0.0000000000
C          C       0.43611   0.62795   0.49999   0.0000000000
C          C       0.37205   0.80816   0.49999   0.0000000000
N          N       0.85475   0.41907   0.49999   0.0000000000
N          N       0.58093   0.43569   0.49999   0.0000000000
N          N       0.56431   0.14525   0.49999   0.0000000000
N          N       0.14525   0.58093   0.49999   0.0000000000
N          N       0.41907   0.56431   0.49999   0.0000000000
N          N       0.43569   0.85475   0.49999   0.0000000000
C          C       0.92750   0.46162   0.49999   0.0000000000
C          C       0.53838   0.46588   0.49999   0.0000000000
C          C       0.53412   0.07250   0.49999   0.0000000000
C          C       0.07250   0.53838   0.49999   0.0000000000
C          C       0.46162   0.53412   0.49999   0.0000000000
C          C       0.46588   0.92750   0.49999   0.0000000000
C          C       0.96689   0.43008   0.49999   0.0000000000
C          C       0.56992   0.53681   0.49999   0.0000000000
C          C       0.46319   0.03311   0.49999   0.0000000000
C          C       0.03311   0.56992   0.49999   0.0000000000
C          C       0.43008   0.46319   0.49999   0.0000000000
C          C       0.53681   0.96689   0.49999   0.0000000000
C          C       0.03703   0.46670   0.49999   0.0000000000
C          C       0.53330   0.57033   0.49999   0.0000000000
C          C       0.42967   0.96297   0.49999   0.0000000000
C          C       0.96297   0.53330   0.49999   0.0000000000
C          C       0.46670   0.42967   0.49999   0.0000000000
C          C       0.57033   0.03703   0.49999   0.0000000000
H          H       0.70084   0.45537   0.49999   0.0000000000
H          H       0.54463   0.24547   0.49999   0.0000000000
H          H       0.75453   0.29916   0.49999   0.0000000000
H          H       0.29916   0.54463   0.49999   0.0000000000
H          H       0.45537   0.75453   0.49999   0.0000000000
H          H       0.24547   0.70084   0.49999   0.0000000000
H          H       0.82039   0.48834   0.49999   0.0000000000
H          H       0.51166   0.33205   0.49999   0.0000000000
H          H       0.66795   0.17961   0.49999   0.0000000000
H          H       0.17961   0.51166   0.49999   0.0000000000
H          H       0.48834   0.66795   0.49999   0.0000000000
H          H       0.33205   0.82039   0.49999   0.0000000000
N          N       0.93921   0.35877   0.49999   0.0000000000
N          N       0.64123   0.58044   0.49999   0.0000000000
N          N       0.41956   0.06079   0.49999   0.0000000000
N          N       0.06079   0.64123   0.49999   0.0000000000
N          N       0.35877   0.41956   0.49999   0.0000000000
N          N       0.58044   0.93921   0.49999   0.0000000000
N          N       0.06687   0.42501   0.49999   0.0000000000
N          N       0.57499   0.64186   0.49999   0.0000000000
N          N       0.35814   0.93313   0.49999   0.0000000000
N          N       0.93313   0.57499   0.49999   0.0000000000
N          N       0.42501   0.35814   0.49999   0.0000000000
N          N       0.64186   0.06687   0.49999   0.0000000000
S          S       0.33714   0.33274   0.49999   0.0000000000
S          S       0.66726   0.00440   0.49999   0.0000000000
S          S       0.99560   0.66285   0.49999   0.0000000000
S          S       0.66285   0.66726   0.49999   0.0000000000
S          S       0.33274   0.99560   0.49999   0.0000000000
S          S       0.00440   0.33714   0.49999   0.0000000000
