data_Tp-Azo
_audit_creation_date              0000-00-00
_audit_creation_method            'LanYouShi'
_symmetry_space_group_name_H-M    'P1'
_cell_length_a                    31.5000000
_cell_length_b                    31.5000000
_cell_length_c                    3.3000000
_cell_angle_alpha                 90.0000000
_cell_angle_beta                  90.0000000
_cell_angle_gamma                 120.0000000
loop_
_atom_site_label
_atom_site_type_symbol
_atom_site_fract_x
_atom_site_fract_y
_atom_site_fract_z
_atom_site_U_iso_or_equiv
_atom_site_adp_type
_atom_site_occupancy
        O1          O  0.2969500  0.5769700  0.0000000    0.00000       Uiso       1.00
        N1          N  0.3824500  0.5850500  0.0000000    0.00000       Uiso       1.00
        C1          C  0.3138200  0.6175700  0.0000000    0.00000       Uiso       1.00
        C2          C  0.3934200  0.6314500  0.0000000    0.00000       Uiso       1.00
        C3          C  0.4146800  0.5699000  0.0000000    0.00000       Uiso       1.00
        C4          C  0.4614500  0.5994700  0.0000000    0.00000       Uiso       1.00
        C5          C  0.4911100  0.5827700  0.0000000    0.00000       Uiso       1.00
        C6          C  0.4749400  0.5366400  0.0000000    0.00000       Uiso       1.00
        C7          C  0.4285300  0.5070100  0.0000000    0.00000       Uiso       1.00
        C8          C  0.3987800  0.5235400  0.0000000    0.00000       Uiso       1.00
        C9          C  0.3635900  0.6467500  0.0000000    0.00000       Uiso       1.00
        H1          H  0.4284900  0.6565600  0.0000000    0.00000       Uiso       1.00
        H2          H  0.4758900  0.6353100  0.0000000    0.00000       Uiso       1.00
        H3          H  0.3492200  0.5594600  0.0000000    0.00000       Uiso       1.00
        H4          H  0.3630800  0.5000700  0.0000000    0.00000       Uiso       1.00
        H5          H  0.5269200  0.6057100  0.0000000    0.00000       Uiso       1.00
        H6          H  0.4155800  0.4712000  0.0000000    0.00000       Uiso       1.00
        O2          O  0.4230300  0.7199800  0.0000000    0.00000       Uiso       1.00
        N2          N  0.4149500  0.7974000  0.0000000    0.00000       Uiso       1.00
       C10          C  0.3824300  0.6962500  0.0000000    0.00000       Uiso       1.00
       C11          C  0.3685500  0.7619700  0.0000000    0.00000       Uiso       1.00
       C12          C  0.4301000  0.8447800  0.0000000    0.00000       Uiso       1.00
       C13          C  0.4005300  0.8619800  0.0000000    0.00000       Uiso       1.00
       C14          C  0.4172300  0.9083400  0.0000000    0.00000       Uiso       1.00
       C15          C  0.4633600  0.9383000  0.0000000    0.00000       Uiso       1.00
       C16          C  0.4929900  0.9215200  0.0000000    0.00000       Uiso       1.00
       C17          C  0.4764600  0.8752400  0.0000000    0.00000       Uiso       1.00
       C18          C  0.3532500  0.7168400  0.0000000    0.00000       Uiso       1.00
        H7          H  0.3434400  0.7719300  0.0000000    0.00000       Uiso       1.00
        H8          H  0.3646900  0.8405800  0.0000000    0.00000       Uiso       1.00
        H9          H  0.4405400  0.7897600  0.0000000    0.00000       Uiso       1.00
       H10          H  0.4999300  0.8630100  0.0000000    0.00000       Uiso       1.00
       H11          H  0.3942900  0.9212100  0.0000000    0.00000       Uiso       1.00
       H12          H  0.5288000  0.9443800  0.0000000    0.00000       Uiso       1.00
        O3          O  0.2800200  0.7030500  0.0000000    0.00000       Uiso       1.00
        N3          N  0.2026000  0.6175500  0.0000000    0.00000       Uiso       1.00
       C19          C  0.3037500  0.6861800  0.0000000    0.00000       Uiso       1.00
       C20          C  0.2380300  0.6065800  0.0000000    0.00000       Uiso       1.00
       C21          C  0.1552200  0.5853200  0.0000000    0.00000       Uiso       1.00
       C22          C  0.1380200  0.5385500  0.0000000    0.00000       Uiso       1.00
       C23          C  0.0916600  0.5088900  0.0000000    0.00000       Uiso       1.00
       C24          C  0.0617000  0.5250600  0.0000000    0.00000       Uiso       1.00
       C25          C  0.0784800  0.5714700  0.0000000    0.00000       Uiso       1.00
       C26          C  0.1247600  0.6012200  0.0000000    0.00000       Uiso       1.00
       C27          C  0.2831600  0.6364100  0.0000000    0.00000       Uiso       1.00
       H13          H  0.2280700  0.5715100  0.0000000    0.00000       Uiso       1.00
       H14          H  0.1594200  0.5241100  0.0000000    0.00000       Uiso       1.00
       H15          H  0.2102400  0.6507800  0.0000000    0.00000       Uiso       1.00
       H16          H  0.1369900  0.6369200  0.0000000    0.00000       Uiso       1.00
       H17          H  0.0787900  0.4730800  0.0000000    0.00000       Uiso       1.00
       H18          H  0.0556200  0.5844200  0.0000000    0.00000       Uiso       1.00
        O4          O  0.7030500  0.4230300  0.0000000    0.00000       Uiso       1.00
        N4          N  0.6175500  0.4149500  0.0000000    0.00000       Uiso       1.00
       C28          C  0.6861800  0.3824300  0.0000000    0.00000       Uiso       1.00
       C29          C  0.6065800  0.3685500  0.0000000    0.00000       Uiso       1.00
       C30          C  0.5853200  0.4301000  0.0000000    0.00000       Uiso       1.00
       C31          C  0.5385500  0.4005300  0.0000000    0.00000       Uiso       1.00
       C32          C  0.5088900  0.4172300  0.0000000    0.00000       Uiso       1.00
       C33          C  0.5250600  0.4633600  0.0000000    0.00000       Uiso       1.00
       C34          C  0.5714700  0.4929900  0.0000000    0.00000       Uiso       1.00
       C35          C  0.6012200  0.4764600  0.0000000    0.00000       Uiso       1.00
       C36          C  0.6364100  0.3532500  0.0000000    0.00000       Uiso       1.00
       H19          H  0.5715100  0.3434400  0.0000000    0.00000       Uiso       1.00
       H20          H  0.5241100  0.3646900  0.0000000    0.00000       Uiso       1.00
       H21          H  0.6507800  0.4405400  0.0000000    0.00000       Uiso       1.00
       H22          H  0.6369200  0.4999300  0.0000000    0.00000       Uiso       1.00
       H23          H  0.4730800  0.3942900  0.0000000    0.00000       Uiso       1.00
       H24          H  0.5844200  0.5288000  0.0000000    0.00000       Uiso       1.00
        O5          O  0.5769700  0.2800200  0.0000000    0.00000       Uiso       1.00
        N5          N  0.5850500  0.2026000  0.0000000    0.00000       Uiso       1.00
       C37          C  0.6175700  0.3037500  0.0000000    0.00000       Uiso       1.00
       C38          C  0.6314500  0.2380300  0.0000000    0.00000       Uiso       1.00
       C39          C  0.5699000  0.1552200  0.0000000    0.00000       Uiso       1.00
       C40          C  0.5994700  0.1380200  0.0000000    0.00000       Uiso       1.00
       C41          C  0.5827700  0.0916600  0.0000000    0.00000       Uiso       1.00
       C42          C  0.5366400  0.0617000  0.0000000    0.00000       Uiso       1.00
       C43          C  0.5070100  0.0784800  0.0000000    0.00000       Uiso       1.00
       C44          C  0.5235400  0.1247600  0.0000000    0.00000       Uiso       1.00
       C45          C  0.6467500  0.2831600  0.0000000    0.00000       Uiso       1.00
       H25          H  0.6565599  0.2280700  0.0000000    0.00000       Uiso       1.00
       H26          H  0.6353100  0.1594200  0.0000000    0.00000       Uiso       1.00
       H27          H  0.5594600  0.2102400  0.0000000    0.00000       Uiso       1.00
       H28          H  0.5000700  0.1369900  0.0000000    0.00000       Uiso       1.00
       H29          H  0.6057100  0.0787900  0.0000000    0.00000       Uiso       1.00
       H30          H  0.4712000  0.0556200  0.0000000    0.00000       Uiso       1.00
        O6          O  0.7199800  0.2969500  0.0000000    0.00000       Uiso       1.00
        N6          N  0.7974000  0.3824500  0.0000000    0.00000       Uiso       1.00
       C46          C  0.6962500  0.3138200  0.0000000    0.00000       Uiso       1.00
       C47          C  0.7619700  0.3934200  0.0000000    0.00000       Uiso       1.00
       C48          C  0.8447800  0.4146800  0.0000000    0.00000       Uiso       1.00
       C49          C  0.8619800  0.4614500  0.0000000    0.00000       Uiso       1.00
       C50          C  0.9083400  0.4911100  0.0000000    0.00000       Uiso       1.00
       C51          C  0.9383000  0.4749400  0.0000000    0.00000       Uiso       1.00
       C52          C  0.9215200  0.4285300  0.0000000    0.00000       Uiso       1.00
       C53          C  0.8752400  0.3987800  0.0000000    0.00000       Uiso       1.00
       C54          C  0.7168400  0.3635900  0.0000000    0.00000       Uiso       1.00
       H31          H  0.7719300  0.4284900  0.0000000    0.00000       Uiso       1.00
       H32          H  0.8405800  0.4758900  0.0000000    0.00000       Uiso       1.00
       H33          H  0.7897600  0.3492200  0.0000000    0.00000       Uiso       1.00
       H34          H  0.8630100  0.3630800  0.0000000    0.00000       Uiso       1.00
       H35          H  0.9212101  0.5269200  0.0000000    0.00000       Uiso       1.00
       H36          H  0.9443800  0.4155800  0.0000000    0.00000       Uiso       1.00
        N7          N  0.5062700  0.5208100  0.0000000    0.00000       Uiso       1.00
        N8          N  0.4791900  0.9854600  0.0000000    0.00000       Uiso       1.00
        N9          N  0.0145400  0.4937300  0.0000000    0.00000       Uiso       1.00
       N10          N  0.4937300  0.4791900  0.0000000    0.00000       Uiso       1.00
       N11          N  0.5208100  0.0145400  0.0000000    0.00000       Uiso       1.00
       N12          N  0.9854600  0.5062700  0.0000000    0.00000       Uiso       1.00
