data_TP-COF-DAB
_audit_creation_date              0000-00-00
_audit_creation_method            'LanYouShi'
_symmetry_space_group_name_H-M    'P1'
_cell_length_a                    52.2000008
_cell_length_b                    52.2000008
_cell_length_c                    3.5300000
_cell_angle_alpha                 90.0000000
_cell_angle_beta                  90.0000000
_cell_angle_gamma                 120.0000000
loop_
_atom_site_label
_atom_site_type_symbol
_atom_site_fract_x
_atom_site_fract_y
_atom_site_fract_z
_atom_site_U_iso_or_equiv
_atom_site_adp_type
_atom_site_occupancy
        H1          H  0.2804070  0.6840830  0.0000000    0.00000       Uiso       1.00
        H2          H  0.3196780  0.6788040  0.0000000    0.00000       Uiso       1.00
        H3          H  0.3657170  0.6777300  0.0000000    0.00000       Uiso       1.00
        H4          H  0.4152970  0.7734490  0.0000000    0.00000       Uiso       1.00
        H5          H  0.3692950  0.7745150  0.0000000    0.00000       Uiso       1.00
        H6          H  0.4542870  0.7685251  0.0000000    0.00000       Uiso       1.00
        H7          H  0.4461700  0.6920180  0.0000000    0.00000       Uiso       1.00
        H8          H  0.5408290  0.7275910  0.0000000    0.00000       Uiso       1.00
        H9          H  0.5050710  0.7852500  0.0000000    0.00000       Uiso       1.00
       H10          H  0.5742680  0.7774600  0.0000000    0.00000       Uiso       1.00
       H11          H  0.4396540  0.6520970  0.0000000    0.00000       Uiso       1.00
       H12          H  0.4322780  0.6025430  0.0000000    0.00000       Uiso       1.00
       H13          H  0.4734660  0.5936440  0.0000000    0.00000       Uiso       1.00
       H14          H  0.5344750  0.6879980  0.0000000    0.00000       Uiso       1.00
       H15          H  0.5069160  0.5872850  0.0000000    0.00000       Uiso       1.00
       H16          H  0.5999560  0.6208180  0.0000000    0.00000       Uiso       1.00
       H17          H  0.5677440  0.6815320  0.0000000    0.00000       Uiso       1.00
       H18          H  0.6349800  0.6718230  0.0000000    0.00000       Uiso       1.00
       H19          H  0.5223000  0.5526540  0.0000000    0.00000       Uiso       1.00
       H20          H  0.5168490  0.5081820  0.0000000    0.00000       Uiso       1.00
       H21          H  0.5155170  0.4609560  0.0000000    0.00000       Uiso       1.00
       H22          H  0.6112260  0.5066870  0.0000000    0.00000       Uiso       1.00
       H23          H  0.6125570  0.5538830  0.0000000    0.00000       Uiso       1.00
       H24          H  0.6060630  0.4626980  0.0000000    0.00000       Uiso       1.00
       H25          H -0.0033820 -0.3831400  0.0000000    0.00000       Uiso       1.00
       H26          H  0.0648600 -0.3915150  0.0000000    0.00000       Uiso       1.00
       H27          H  0.1241800 -0.2968970  0.0000000    0.00000       Uiso       1.00
       H28          H  0.0307950 -0.3323970  0.0000000    0.00000       Uiso       1.00
       H29          H  0.1078590 -0.2633330  0.0000000    0.00000       Uiso       1.00
       H30          H  0.0981730 -0.3981610  0.0000000    0.00000       Uiso       1.00
       H31          H  0.1402350 -0.4057150  0.0000000    0.00000       Uiso       1.00
       H32          H  0.1903960 -0.3646460  0.0000000    0.00000       Uiso       1.00
       H33          H  0.1573400 -0.3033960  0.0000000    0.00000       Uiso       1.00
       H34          H  0.2302870 -0.3312700  0.0000000    0.00000       Uiso       1.00
       H35          H  0.2899840 -0.2382600  0.0000000    0.00000       Uiso       1.00
       H36          H  0.1971170 -0.2702330  0.0000000    0.00000       Uiso       1.00
       H37          H  0.1128220 -0.2196840  0.0000000    0.00000       Uiso       1.00
       H38          H  0.1137500 -0.1726190  0.0000000    0.00000       Uiso       1.00
       H39          H  0.0180040 -0.2189810  0.0000000    0.00000       Uiso       1.00
       H40          H  0.0170380 -0.2660470  0.0000000    0.00000       Uiso       1.00
       H41          H  0.0229630 -0.1749700  0.0000000    0.00000       Uiso       1.00
       H42          H  0.0999810 -0.1078530  0.0000000    0.00000       Uiso       1.00
       H43          H  0.0667890 -0.0468350  0.0000000    0.00000       Uiso       1.00
       H44          H  0.0071080 -0.1398450  0.0000000    0.00000       Uiso       1.00
       H45          H  0.1397080 -0.0746950  0.0000000    0.00000       Uiso       1.00
       H46          H  0.1988750  0.0200790  0.0000000    0.00000       Uiso       1.00
       H47          H  0.1568150  0.0276390  0.0000000    0.00000       Uiso       1.00
       H48          H  0.1066580 -0.0134440  0.0000000    0.00000       Uiso       1.00
       H49          H  0.1728370 -0.0812270  0.0000000    0.00000       Uiso       1.00
       H50          H  0.2662230 -0.0457170  0.0000000    0.00000       Uiso       1.00
       H51          H  0.2321440  0.0133910  0.0000000    0.00000       Uiso       1.00
       H52          H  0.1891580 -0.1147920  0.0000000    0.00000       Uiso       1.00
       H53          H  0.3004040  0.0051350  0.0000000    0.00000       Uiso       1.00
       H54          H  0.1842190 -0.1584270  0.0000000    0.00000       Uiso       1.00
       H55          H  0.1833060 -0.2054830  0.0000000    0.00000       Uiso       1.00
       H56          H  0.2790540 -0.1590950  0.0000000    0.00000       Uiso       1.00
       H57          H  0.2799970 -0.1120400  0.0000000    0.00000       Uiso       1.00
       H58          H  0.2741180 -0.2031210  0.0000000    0.00000       Uiso       1.00
       H59          H  0.3442700  0.0441300  0.0000000    0.00000       Uiso       1.00
       H60          H  0.3913180  0.0901600  0.0000000    0.00000       Uiso       1.00
       H61          H  0.3451420  0.1397050  0.0000000    0.00000       Uiso       1.00
       H62          H  0.2980520  0.0936400  0.0000000    0.00000       Uiso       1.00
       H63          H  0.3896030  0.1789350  0.0000000    0.00000       Uiso       1.00
       H64          H  0.4577410  0.1694590  0.0000000    0.00000       Uiso       1.00
       H65          H  0.5185340  0.2623430  0.0000000    0.00000       Uiso       1.00
       H66          H  0.4243000  0.2290500  0.0000000    0.00000       Uiso       1.00
       H67          H  0.5086970  0.1853440  0.0000000    0.00000       Uiso       1.00
       H68          H  0.5250280  0.3020450  0.0000000    0.00000       Uiso       1.00
       H69          H  0.4893710  0.3611630  0.0000000    0.00000       Uiso       1.00
       H70          H  0.4397540  0.3190540  0.0000000    0.00000       Uiso       1.00
       H71          H  0.4307270  0.2689120  0.0000000    0.00000       Uiso       1.00
       H72          H  0.5646200  0.3351330  0.0000000    0.00000       Uiso       1.00
       H73          H  0.6225600  0.4284850  0.0000000    0.00000       Uiso       1.00
       H74          H  0.5293800  0.3945100  0.0000000    0.00000       Uiso       1.00
       H75          H  0.6144670  0.3513780  0.0000000    0.00000       Uiso       1.00
       H76          H  0.5477390  0.1803780  0.0000000    0.00000       Uiso       1.00
       H77          H  0.5938370  0.1794120  0.0000000    0.00000       Uiso       1.00
       H78          H  0.6432560  0.2751960  0.0000000    0.00000       Uiso       1.00
       H79          H  0.5971240  0.2761230  0.0000000    0.00000       Uiso       1.00
       H80          H  0.6532060  0.3464320  0.0000000    0.00000       Uiso       1.00
       H81          H  0.6993880  0.3455760  0.0000000    0.00000       Uiso       1.00
       H82          H  0.7486530  0.4413320  0.0000000    0.00000       Uiso       1.00
       H83          H  0.7025170  0.4422150  0.0000000    0.00000       Uiso       1.00
       H84          H  0.7877180  0.4365030  0.0000000    0.00000       Uiso       1.00
       H85          H  0.6819110  0.2702620  0.0000000    0.00000       Uiso       1.00
       H86          H  0.6740400  0.1932500  0.0000000    0.00000       Uiso       1.00
       H87          H  0.7672470  0.2274640  0.0000000    0.00000       Uiso       1.00
       H88          H  0.7318020  0.2866580  0.0000000    0.00000       Uiso       1.00
       H89          H  0.7780150  0.3596000  0.0000000    0.00000       Uiso       1.00
       H90          H  0.8722420  0.3929260  0.0000000    0.00000       Uiso       1.00
       H91          H  0.8387810  0.4525030  0.0000000    0.00000       Uiso       1.00
       H92          H  0.8071800  0.2608060  0.0000000    0.00000       Uiso       1.00
       H93          H  0.8567710  0.3029140  0.0000000    0.00000       Uiso       1.00
       H94          H  0.8657780  0.3530480  0.0000000    0.00000       Uiso       1.00
       H95          H  0.7714500  0.3198630  0.0000000    0.00000       Uiso       1.00
       H96          H  0.9069340  0.4430340  0.0000000    0.00000       Uiso       1.00
       H97          H  0.6178490  0.8161120  0.0000000    0.00000       Uiso       1.00
       H98          H  0.6649060  0.8622430  0.0000000    0.00000       Uiso       1.00
       H99          H  0.6185420  0.9116240  0.0000000    0.00000       Uiso       1.00
      H100          H  0.5714800  0.8655240  0.0000000    0.00000       Uiso       1.00
      H101          H  0.6789340  0.7108760  0.0000000    0.00000       Uiso       1.00
      H102          H  0.7259740  0.7569940  0.0000000    0.00000       Uiso       1.00
      H103          H  0.6795500  0.8063520  0.0000000    0.00000       Uiso       1.00
      H104          H  0.6325040  0.7601970  0.0000000    0.00000       Uiso       1.00
      H105          H  0.6625540  0.9506700  0.0000000    0.00000       Uiso       1.00
      H106          H  0.7231640  0.8450420  0.0000000    0.00000       Uiso       1.00
      H107          H  0.7297800  0.9409100  0.0000000    0.00000       Uiso       1.00
      H108          H  0.7906160  1.0351670  0.0000000    0.00000       Uiso       1.00
      H109          H  0.6975710  1.0016149  0.0000000    0.00000       Uiso       1.00
      H110          H  0.7922980  0.8371500  0.0000000    0.00000       Uiso       1.00
      H111          H  0.8513030  0.9303671  0.0000000    0.00000       Uiso       1.00
      H112          H  0.7566570  0.8949030  0.0000000    0.00000       Uiso       1.00
      H113          H  0.8578660  0.9703270  0.0000000    0.00000       Uiso       1.00
      H114          H  0.8652630  1.0198960  0.0000000    0.00000       Uiso       1.00
      H115          H  0.8240850  1.0288169  0.0000000    0.00000       Uiso       1.00
      H116          H  0.7630570  0.9344770  0.0000000    0.00000       Uiso       1.00
      H117          H  0.8430390  0.8537920  0.0000000    0.00000       Uiso       1.00
      H118          H  0.8818690  0.8487350  0.0000000    0.00000       Uiso       1.00
      H119          H  0.9277830  0.8475040  0.0000000    0.00000       Uiso       1.00
      H120          H  0.9776510  0.9432160  0.0000000    0.00000       Uiso       1.00
      H121          H  0.9317040  0.9444580  0.0000000    0.00000       Uiso       1.00
      H122          H  1.0167210  0.9378319  0.0000000    0.00000       Uiso       1.00
      H123          H  0.9514120  0.4821860  0.0000000    0.00000       Uiso       1.00
      H124          H  0.9985700  0.5281590  0.0000000    0.00000       Uiso       1.00
      H125          H  0.9526160  0.5779180  0.0000000    0.00000       Uiso       1.00
      H126          H  0.9054870  0.5319730  0.0000000    0.00000       Uiso       1.00
      H127          H  0.6907140  1.1591409  0.0000000    0.00000       Uiso       1.00
      H128          H  0.6857740  1.1152360  0.0000000    0.00000       Uiso       1.00
      H129          H  0.6847010  1.0681621  0.0000000    0.00000       Uiso       1.00
      H130          H  0.7804190  1.1142560  0.0000000    0.00000       Uiso       1.00
      H131          H  0.7814960  1.1613671  0.0000000    0.00000       Uiso       1.00
      H132          H  0.7751610  1.0698071  0.0000000    0.00000       Uiso       1.00
        C1          C  2.2868791 -2.2923691  0.0000000    0.00000       Uiso       1.00
        C2          C  2.3404481 -2.2730980  0.0000000    0.00000       Uiso       1.00
        C3          C  2.3405669 -2.3000169  0.0000000    0.00000       Uiso       1.00
        C4          C  2.3668191 -2.3006780  0.0000000    0.00000       Uiso       1.00
        C5          C  2.3945701 -2.2746420  0.0000000    0.00000       Uiso       1.00
        C6          C  2.3944252 -2.2477379  0.0000000    0.00000       Uiso       1.00
        C7          C  2.3681870 -2.2470760  0.0000000    0.00000       Uiso       1.00
        C8          C  2.4481289 -2.2549360  0.0000000    0.00000       Uiso       1.00
        C9          C  2.4724920 -2.2610619  0.0000000    0.00000       Uiso       1.00
       C10          C  2.4688601 -2.2893341  0.0000000    0.00000       Uiso       1.00
       C11          C  2.4928181 -2.2949541  0.0000000    0.00000       Uiso       1.00
       C12          C  2.5214179 -2.2695749  0.0000000    0.00000       Uiso       1.00
       C13          C  2.5264568 -2.2408340  0.0000000    0.00000       Uiso       1.00
       C14          C  2.5015759 -2.2372961  0.0000000    0.00000       Uiso       1.00
       C15          C  2.5568790 -2.2164979  0.0000000    0.00000       Uiso       1.00
       C16          C  2.4883599 -2.3248971  0.0000000    0.00000       Uiso       1.00
       C17          C  2.4594169 -2.3501620  0.0000000    0.00000       Uiso       1.00
       C18          C  2.4549479 -2.3785009  0.0000000    0.00000       Uiso       1.00
       C19          C  2.4786251 -2.3832810  0.0000000    0.00000       Uiso       1.00
       C20          C  2.5083997 -2.3594210  0.0000000    0.00000       Uiso       1.00
       C21          C  2.5119500 -2.3308001  0.0000000    0.00000       Uiso       1.00
       C22          C  2.5333610 -2.3647211  0.0000000    0.00000       Uiso       1.00
       C23          C  2.5293872 -2.3936791  0.0000000    0.00000       Uiso       1.00
       C24          C  2.5525432 -2.3996060  0.0000000    0.00000       Uiso       1.00
       C25          C  2.5812340 -2.3751690  0.0000000    0.00000       Uiso       1.00
       C26          C  2.5872171 -2.3458629  0.0000000    0.00000       Uiso       1.00
       C27          C  2.5631342 -2.3413551  0.0000000    0.00000       Uiso       1.00
       C28          C  2.6177959 -2.3218570  0.0000000    0.00000       Uiso       1.00
       C29          C  2.5458522 -2.4302831  0.0000000    0.00000       Uiso       1.00
       C30          C  2.5649698 -2.4646671  0.0000000    0.00000       Uiso       1.00
       C31          C  2.5379748 -2.4916332  0.0000000    0.00000       Uiso       1.00
       C32          C  2.5371630 -2.5186191  0.0000000    0.00000       Uiso       1.00
       C33          C  2.5631149 -2.5204790  0.0000000    0.00000       Uiso       1.00
       C34          C  2.5900970 -2.4935071  0.0000000    0.00000       Uiso       1.00
       C35          C  2.5909111 -2.4665329  0.0000000    0.00000       Uiso       1.00
       C36          C  2.5825720 -2.5545239  0.0000000    0.00000       Uiso       1.00
       C37          C  2.5762951 -2.5850608  0.0000000    0.00000       Uiso       1.00
       C38          C  2.0341959 -3.0924392  0.0000000    0.00000       Uiso       1.00
       C39          C  2.0138657 -3.3893721  0.0000000    0.00000       Uiso       1.00
       C40          C  2.0443919 -3.3650761  0.0000000    0.00000       Uiso       1.00
       C41          C  2.0689769 -3.3687990  0.0000000    0.00000       Uiso       1.00
       C42          C  2.0985901 -3.3449028  0.0000000    0.00000       Uiso       1.00
       C43          C  2.1019051 -3.3162639  0.0000000    0.00000       Uiso       1.00
       C44          C  2.0782590 -3.3111370  0.0000000    0.00000       Uiso       1.00
       C45          C  2.0498030 -3.3359618  0.0000000    0.00000       Uiso       1.00
       C46          C  2.0844181 -3.2806909  0.0000000    0.00000       Uiso       1.00
       C47          C  2.1240110 -3.3494639  0.0000000    0.00000       Uiso       1.00
       C48          C  2.1202300 -3.3784461  0.0000000    0.00000       Uiso       1.00
       C49          C  2.1440351 -3.3830159  0.0000000    0.00000       Uiso       1.00
       C50          C  2.1725349 -3.3594072  0.0000000    0.00000       Uiso       1.00
       C51          C  2.1785531 -3.3296001  0.0000000    0.00000       Uiso       1.00
       C52          C  2.1535430 -3.3259459  0.0000000    0.00000       Uiso       1.00
       C53          C  2.2088580 -3.3047078  0.0000000    0.00000       Uiso       1.00
       C54          C  2.2337878 -3.3087730  0.0000000    0.00000       Uiso       1.00
       C55          C  2.2628999 -3.2856631  0.0000000    0.00000       Uiso       1.00
       C56          C  2.2672288 -3.2569439  0.0000000    0.00000       Uiso       1.00
       C57          C  2.2439649 -3.2508740  0.0000000    0.00000       Uiso       1.00
       C58          C  2.2153480 -3.2749100  0.0000000    0.00000       Uiso       1.00
       C59          C  2.0646949 -3.2470701  0.0000000    0.00000       Uiso       1.00
       C60          C  2.0916209 -3.2200363  0.0000000    0.00000       Uiso       1.00
       C61          C  2.0922210 -3.1931798  0.0000000    0.00000       Uiso       1.00
       C62          C  2.0660982 -3.1916599  0.0000000    0.00000       Uiso       1.00
       C63          C  2.0391891 -3.2186728  0.0000000    0.00000       Uiso       1.00
       C64          C  2.0385921 -3.2455220  0.0000000    0.00000       Uiso       1.00
       C65          C  2.0464802 -3.1578209  0.0000000    0.00000       Uiso       1.00
       C66          C  2.0531301 -3.1272190  0.0000000    0.00000       Uiso       1.00
       C67          C  2.0817459 -3.1031818  0.0000000    0.00000       Uiso       1.00
       C68          C  2.0882249 -3.0733860  0.0000000    0.00000       Uiso       1.00
       C69          C  2.0632951 -3.0693290  0.0000000    0.00000       Uiso       1.00
       C70          C  2.0298629 -3.1211629  0.0000000    0.00000       Uiso       1.00
       C71          C  2.1185100 -3.0484838  0.0000000    0.00000       Uiso       1.00
       C72          C  2.1435111 -3.0521431  0.0000000    0.00000       Uiso       1.00
       C73          C  2.1730309 -3.0286260  0.0000000    0.00000       Uiso       1.00
       C74          C  2.1768212 -2.9996359  0.0000000    0.00000       Uiso       1.00
       C75          C  2.1530182 -2.9950609  0.0000000    0.00000       Uiso       1.00
       C76          C  2.1245241 -3.0186749  0.0000000    0.00000       Uiso       1.00
       C77          C  2.1984291 -3.0332139  0.0000000    0.00000       Uiso       1.00
       C78          C  2.1951089 -3.0618570  0.0000000    0.00000       Uiso       1.00
       C79          C  2.2187538 -3.0669849  0.0000000    0.00000       Uiso       1.00
       C80          C  2.2472110 -3.0421598  0.0000000    0.00000       Uiso       1.00
       C81          C  2.2526081 -3.0130520  0.0000000    0.00000       Uiso       1.00
       C82          C  2.2280309 -3.0093241  0.0000000    0.00000       Uiso       1.00
       C83          C  2.2125981 -3.0974278  0.0000000    0.00000       Uiso       1.00
       C84          C  2.2830970 -2.9887128  0.0000000    0.00000       Uiso       1.00
       C85          C  2.2323411 -3.1310329  0.0000000    0.00000       Uiso       1.00
       C86          C  2.2054219 -3.1580722  0.0000000    0.00000       Uiso       1.00
       C87          C  2.2048349 -3.1849220  0.0000000    0.00000       Uiso       1.00
       C88          C  2.2309620 -3.1864359  0.0000000    0.00000       Uiso       1.00
       C89          C  2.2578640 -3.1594148  0.0000000    0.00000       Uiso       1.00
       C90          C  2.2584488 -3.1325710  0.0000000    0.00000       Uiso       1.00
       C91          C  2.2506020 -3.2202742  0.0000000    0.00000       Uiso       1.00
       C92          C  2.3168871 -2.9351640  0.0000000    0.00000       Uiso       1.00
       C93          C  2.3439391 -2.9350059  0.0000000    0.00000       Uiso       1.00
       C94          C  2.3708231 -2.9087579  0.0000000    0.00000       Uiso       1.00
       C95          C  2.3724971 -2.8810408  0.0000000    0.00000       Uiso       1.00
       C96          C  2.3454533 -2.8811729  0.0000000    0.00000       Uiso       1.00
       C97          C  2.3185539 -2.9074371  0.0000000    0.00000       Uiso       1.00
       C98          C  2.4067080 -2.8274980  0.0000000    0.00000       Uiso       1.00
       C99          C  2.4373701 -2.8035030  0.0000000    0.00000       Uiso       1.00
      C100          C  2.4617789 -2.8077979  0.0000000    0.00000       Uiso       1.00
      C101          C  2.4910941 -2.7845080  0.0000000    0.00000       Uiso       1.00
      C102          C  2.4956350 -2.7559061  0.0000000    0.00000       Uiso       1.00
      C103          C  2.4722910 -2.7494619  0.0000000    0.00000       Uiso       1.00
      C104          C  2.4433181 -2.7744141  0.0000000    0.00000       Uiso       1.00
      C105          C  2.5150561 -2.7911420  0.0000000    0.00000       Uiso       1.00
      C106          C  2.4776309 -2.7191880  0.0000000    0.00000       Uiso       1.00
      C107          C  2.5062730 -2.6941659  0.0000000    0.00000       Uiso       1.00
      C108          C  2.5122519 -2.6646500  0.0000000    0.00000       Uiso       1.00
      C109          C  2.4870391 -2.6608889  0.0000000    0.00000       Uiso       1.00
      C110          C  2.4586718 -2.6847169  0.0000000    0.00000       Uiso       1.00
      C111          C  2.4538162 -2.7132049  0.0000000    0.00000       Uiso       1.00
      C112          C  2.5422320 -2.6392400  0.0000000    0.00000       Uiso       1.00
      C113          C  2.5675340 -2.6425910  0.0000000    0.00000       Uiso       1.00
      C114          C  2.5963109 -2.6189721  0.0000000    0.00000       Uiso       1.00
      C115          C  2.5999770 -2.5905030  0.0000000    0.00000       Uiso       1.00
      C116          C  2.5479701 -2.6096220  0.0000000    0.00000       Uiso       1.00
      C117          C  2.6205630 -2.6251760  0.0000000    0.00000       Uiso       1.00
      C118          C  2.5685110 -2.7715271  0.0000000    0.00000       Uiso       1.00
      C119          C  2.6739039 -2.6054461  0.0000000    0.00000       Uiso       1.00
      C120          C  2.5686150 -2.7984369  0.0000000    0.00000       Uiso       1.00
      C121          C  2.5948658 -2.7990341  0.0000000    0.00000       Uiso       1.00
      C122          C  2.6225190 -2.7729309  0.0000000    0.00000       Uiso       1.00
      C123          C  2.6224091 -2.7460060  0.0000000    0.00000       Uiso       1.00
      C124          C  2.5961530 -2.7454059  0.0000000    0.00000       Uiso       1.00
      C125          C  2.6740441 -2.6323550  0.0000000    0.00000       Uiso       1.00
      C126          C  2.7003257 -2.6329100  0.0000000    0.00000       Uiso       1.00
      C127          C  2.7279470 -2.6067569  0.0000000    0.00000       Uiso       1.00
      C128          C  2.7277989 -2.5798719  0.0000000    0.00000       Uiso       1.00
      C129          C  2.7015281 -2.5793190  0.0000000    0.00000       Uiso       1.00
      C130          C  2.7814219 -2.5869939  0.0000000    0.00000       Uiso       1.00
      C131          C  2.8054411 -2.5935431  0.0000000    0.00000       Uiso       1.00
      C132          C  2.6758592 -2.7531710  0.0000000    0.00000       Uiso       1.00
      C133          C  2.7001798 -2.7592769  0.0000000    0.00000       Uiso       1.00
      C134          C  2.6965961 -2.7877150  0.0000000    0.00000       Uiso       1.00
      C135          C  2.7203350 -2.7930670  0.0000000    0.00000       Uiso       1.00
      C136          C  2.7486238 -2.7684550  0.0000000    0.00000       Uiso       1.00
      C137          C  2.7542908 -2.7388620  0.0000000    0.00000       Uiso       1.00
      C138          C  2.7289360 -2.7356000  0.0000000    0.00000       Uiso       1.00
      C139          C  2.8009081 -2.6221390  0.0000000    0.00000       Uiso       1.00
      C140          C  2.8242481 -2.6285760  0.0000000    0.00000       Uiso       1.00
      C141          C  2.8532221 -2.6036110  0.0000000    0.00000       Uiso       1.00
      C142          C  2.8591771 -2.5745130  0.0000000    0.00000       Uiso       1.00
      C143          C  2.8347530 -2.5702360  0.0000000    0.00000       Uiso       1.00
      C144          C  2.7842572 -2.7134151  0.0000000    0.00000       Uiso       1.00
      C145          C  2.8188751 -2.6588650  0.0000000    0.00000       Uiso       1.00
      C146          C  2.8094850 -2.7171528  0.0000000    0.00000       Uiso       1.00
      C147          C  2.8378470 -2.6933219  0.0000000    0.00000       Uiso       1.00
      C148          C  2.8426919 -2.6648409  0.0000000    0.00000       Uiso       1.00
      C149          C  2.7902250 -2.6838989  0.0000000    0.00000       Uiso       1.00
      C150          C  2.8898489 -2.5505068  0.0000000    0.00000       Uiso       1.00
      C151          C  2.5904539 -2.1631560  0.0000000    0.00000       Uiso       1.00
      C152          C  2.6515739 -2.2683911  0.0000000    0.00000       Uiso       1.00
      C153          C  2.6174920 -2.1630409  0.0000000    0.00000       Uiso       1.00
      C154          C  2.6443479 -2.1367850  0.0000000    0.00000       Uiso       1.00
      C155          C  2.6458738 -2.1091390  0.0000000    0.00000       Uiso       1.00
      C156          C  2.6188562 -2.1092491  0.0000000    0.00000       Uiso       1.00
      C157          C  2.5920050 -2.1355031  0.0000000    0.00000       Uiso       1.00
      C158          C  2.6786010 -2.2682610  0.0000000    0.00000       Uiso       1.00
      C159          C  2.7054381 -2.2419980  0.0000000    0.00000       Uiso       1.00
      C160          C  2.7069621 -2.2143590  0.0000000    0.00000       Uiso       1.00
      C161          C  2.6799171 -2.2144890  0.0000000    0.00000       Uiso       1.00
      C162          C  2.6530721 -2.2407579  0.0000000    0.00000       Uiso       1.00
      C163          C  2.6797159 -2.0556800  0.0000000    0.00000       Uiso       1.00
      C164          C  2.7405391 -2.1610179  0.0000000    0.00000       Uiso       1.00
      C165          C  2.7709711 -2.1367090  0.0000000    0.00000       Uiso       1.00
      C166          C  2.7103071 -2.0316999  0.0000000    0.00000       Uiso       1.00
      C167          C  2.7343960 -2.0362010  0.0000000    0.00000       Uiso       1.00
      C168          C  2.7641702 -2.0128281  0.0000000    0.00000       Uiso       1.00
      C169          C  2.7681463 -1.9838719  0.0000000    0.00000       Uiso       1.00
      C170          C  2.7449820 -1.9779570  0.0000000    0.00000       Uiso       1.00
      C171          C  2.7162938 -2.0023949  0.0000000    0.00000       Uiso       1.00
      C172          C  2.7958229 -2.1402929  0.0000000    0.00000       Uiso       1.00
      C173          C  2.8249171 -2.1165540  0.0000000    0.00000       Uiso       1.00
      C174          C  2.8286011 -2.0882618  0.0000000    0.00000       Uiso       1.00
      C175          C  2.8046701 -2.0826020  0.0000000    0.00000       Uiso       1.00
      C176          C  2.7760520 -2.1079569  0.0000000    0.00000       Uiso       1.00
      C177          C  2.7891400 -2.0181150  0.0000000    0.00000       Uiso       1.00
      C178          C  2.8091631 -2.0526509  0.0000000    0.00000       Uiso       1.00
      C179          C  2.8381131 -2.0273960  0.0000000    0.00000       Uiso       1.00
      C180          C  2.8425901 -1.9990540  0.0000000    0.00000       Uiso       1.00
      C181          C  2.8189180 -1.9942600  0.0000000    0.00000       Uiso       1.00
      C182          C  2.7855840 -2.0467339  0.0000000    0.00000       Uiso       1.00
      C183          C  2.8492370 -2.1227372  0.0000000    0.00000       Uiso       1.00
      C184          C  2.9027400 -2.1031561  0.0000000    0.00000       Uiso       1.00
      C185          C  2.9027779 -2.1301131  0.0000000    0.00000       Uiso       1.00
      C186          C  2.9289639 -2.1308730  0.0000000    0.00000       Uiso       1.00
      C187          C  2.9567361 -2.1048980  0.0000000    0.00000       Uiso       1.00
      C188          C  2.9567251 -2.0779259  0.0000000    0.00000       Uiso       1.00
      C189          C  2.9305251 -2.0771680  0.0000000    0.00000       Uiso       1.00
      C190          C  3.0102398 -2.0857189  0.0000000    0.00000       Uiso       1.00
      C191          C  2.9241571 -2.4969602  0.0000000    0.00000       Uiso       1.00
      C192          C  2.9511652 -2.4969039  0.0000000    0.00000       Uiso       1.00
      C193          C  2.9781110 -2.4706860  0.0000000    0.00000       Uiso       1.00
      C194          C  2.9798889 -2.4429090  0.0000000    0.00000       Uiso       1.00
      C195          C  2.9528751 -2.4429839  0.0000000    0.00000       Uiso       1.00
      C196          C  2.9259400 -2.4691901  0.0000000    0.00000       Uiso       1.00
      C197          C  2.7141781 -1.8235641  0.0000000    0.00000       Uiso       1.00
      C198          C  2.7338679 -1.8574141  0.0000000    0.00000       Uiso       1.00
      C199          C  2.7069590 -1.8844540  0.0000000    0.00000       Uiso       1.00
      C200          C  2.7062919 -1.9113561  0.0000000    0.00000       Uiso       1.00
      C201          C  2.7323139 -1.9130690  0.0000000    0.00000       Uiso       1.00
      C202          C  2.7592392 -1.8860351  0.0000000    0.00000       Uiso       1.00
      C203          C  2.7599051 -1.8591220  0.0000000    0.00000       Uiso       1.00
      C204          C  2.7516248 -1.9473010  0.0000000    0.00000       Uiso       1.00
        N1          N  2.3143430 -2.2711670  0.0000000    0.00000       Uiso       1.00
        N2          N  2.4207680 -2.2764130  0.0000000    0.00000       Uiso       1.00
        N3          N  2.5670350 -2.4365699  0.0000000    0.00000       Uiso       1.00
        N4          N  2.5611851 -2.5485160  0.0000000    0.00000       Uiso       1.00
        N5          N  2.0078971 -3.4167559  0.0000000    0.00000       Uiso       1.00
        N6          N  2.0628781 -3.2749848  0.0000000    0.00000       Uiso       1.00
        N7          N  2.0678468 -3.1638021  0.0000000    0.00000       Uiso       1.00
        N8          N  2.2341437 -3.1031251  0.0000000    0.00000       Uiso       1.00
        N9          N  2.2292321 -3.2142909  0.0000000    0.00000       Uiso       1.00
       N10          N  2.2889483 -2.9613688  0.0000000    0.00000       Uiso       1.00
       N11          N  2.4005091 -2.8549359  0.0000000    0.00000       Uiso       1.00
       N12          N  2.5424042 -2.7697709  0.0000000    0.00000       Uiso       1.00
       N13          N  2.6478040 -2.6036460  0.0000000    0.00000       Uiso       1.00
       N14          N  2.6486249 -2.7747362  0.0000000    0.00000       Uiso       1.00
       N15          N  2.7540989 -2.6084259  0.0000000    0.00000       Uiso       1.00
       N16          N  2.5625410 -2.1892660  0.0000000    0.00000       Uiso       1.00
       N17          N  2.6237280 -2.2945220  0.0000000    0.00000       Uiso       1.00
       N18          N  2.6737411 -2.0830290  0.0000000    0.00000       Uiso       1.00
       N19          N  2.7348669 -2.1882498  0.0000000    0.00000       Uiso       1.00
       N20          N  2.8766010 -2.1012909  0.0000000    0.00000       Uiso       1.00
       N21          N  2.9827821 -2.1069140  0.0000000    0.00000       Uiso       1.00
       N22          N  2.8961000 -2.5230441  0.0000000    0.00000       Uiso       1.00
       N23          N  2.7356491 -1.8294469  0.0000000    0.00000       Uiso       1.00
       N24          N  2.7303860 -1.9410959  0.0000000    0.00000       Uiso       1.00
