data_crystal
 
_cell_length_a    52.20000
_cell_length_b    52.20000
_cell_length_c    3.53000
_cell_angle_alpha 90.00000
_cell_angle_beta  90.00000
_cell_angle_gamma 120.00000
 
_symmetry_space_group_name_Hall 'P 1'
_symmetry_space_group_name_H-M  'P 1'
 
loop_
_symmetry_equiv_pos_as_xyz
 'x,y,z' 
 
loop_
_atom_site_label
_atom_site_type_symbol
_atom_site_fract_x
_atom_site_fract_y
_atom_site_fract_z
_atom_site_charge
H          H       0.28041   0.68408   0.00000   0.0000000000
H          H       0.31968   0.67880   0.00000   0.0000000000
H          H       0.36572   0.67773   0.00000   0.0000000000
H          H       0.41530   0.77345   0.00000   0.0000000000
H          H       0.36929   0.77451   0.00000   0.0000000000
H          H       0.45429   0.76853   0.00000   0.0000000000
H          H       0.44617   0.69202   0.00000   0.0000000000
H          H       0.54083   0.72759   0.00000   0.0000000000
H          H       0.50507   0.78525   0.00000   0.0000000000
H          H       0.57427   0.77746   0.00000   0.0000000000
H          H       0.43965   0.65210   0.00000   0.0000000000
H          H       0.43228   0.60254   0.00000   0.0000000000
H          H       0.47347   0.59364   0.00000   0.0000000000
H          H       0.53448   0.68800   0.00000   0.0000000000
H          H       0.50692   0.58728   0.00000   0.0000000000
H          H       0.59996   0.62082   0.00000   0.0000000000
H          H       0.56774   0.68153   0.00000   0.0000000000
H          H       0.63498   0.67182   0.00000   0.0000000000
H          H       0.52230   0.55265   0.00000   0.0000000000
H          H       0.51685   0.50818   0.00000   0.0000000000
H          H       0.51552   0.46096   0.00000   0.0000000000
H          H       0.61123   0.50669   0.00000   0.0000000000
H          H       0.61256   0.55388   0.00000   0.0000000000
H          H       0.60606   0.46270   0.00000   0.0000000000
H          H      -0.00338  -0.38314   0.00000   0.0000000000
H          H       0.06486  -0.39152   0.00000   0.0000000000
H          H       0.12418  -0.29690   0.00000   0.0000000000
H          H       0.03079  -0.33240   0.00000   0.0000000000
H          H       0.10786  -0.26333   0.00000   0.0000000000
H          H       0.09817  -0.39816   0.00000   0.0000000000
H          H       0.14023  -0.40571   0.00000   0.0000000000
H          H       0.19040  -0.36465   0.00000   0.0000000000
H          H       0.15734  -0.30340   0.00000   0.0000000000
H          H       0.23029  -0.33127   0.00000   0.0000000000
H          H       0.28998  -0.23826   0.00000   0.0000000000
H          H       0.19712  -0.27023   0.00000   0.0000000000
H          H       0.11282  -0.21968   0.00000   0.0000000000
H          H       0.11375  -0.17262   0.00000   0.0000000000
H          H       0.01800  -0.21898   0.00000   0.0000000000
H          H       0.01704  -0.26605   0.00000   0.0000000000
H          H       0.02296  -0.17497   0.00000   0.0000000000
H          H       0.09998  -0.10785   0.00000   0.0000000000
H          H       0.06679  -0.04684   0.00000   0.0000000000
H          H       0.00711  -0.13984   0.00000   0.0000000000
H          H       0.13971  -0.07469   0.00000   0.0000000000
H          H       0.19887   0.02008   0.00000   0.0000000000
H          H       0.15682   0.02764   0.00000   0.0000000000
H          H       0.10666  -0.01344   0.00000   0.0000000000
H          H       0.17284  -0.08123   0.00000   0.0000000000
H          H       0.26622  -0.04572   0.00000   0.0000000000
H          H       0.23214   0.01339   0.00000   0.0000000000
H          H       0.18916  -0.11479   0.00000   0.0000000000
H          H       0.30040   0.00513   0.00000   0.0000000000
H          H       0.18422  -0.15843   0.00000   0.0000000000
H          H       0.18331  -0.20548   0.00000   0.0000000000
H          H       0.27905  -0.15909   0.00000   0.0000000000
H          H       0.28000  -0.11204   0.00000   0.0000000000
H          H       0.27412  -0.20312   0.00000   0.0000000000
H          H       0.34427   0.04413   0.00000   0.0000000000
H          H       0.39132   0.09016   0.00000   0.0000000000
H          H       0.34514   0.13970   0.00000   0.0000000000
H          H       0.29805   0.09364   0.00000   0.0000000000
H          H       0.38960   0.17894   0.00000   0.0000000000
H          H       0.45774   0.16946   0.00000   0.0000000000
H          H       0.51853   0.26234   0.00000   0.0000000000
H          H       0.42430   0.22905   0.00000   0.0000000000
H          H       0.50870   0.18534   0.00000   0.0000000000
H          H       0.52503   0.30205   0.00000   0.0000000000
H          H       0.48937   0.36116   0.00000   0.0000000000
H          H       0.43975   0.31905   0.00000   0.0000000000
H          H       0.43073   0.26891   0.00000   0.0000000000
H          H       0.56462   0.33513   0.00000   0.0000000000
H          H       0.62256   0.42849   0.00000   0.0000000000
H          H       0.52938   0.39451   0.00000   0.0000000000
H          H       0.61447   0.35138   0.00000   0.0000000000
H          H       0.54774   0.18038   0.00000   0.0000000000
H          H       0.59384   0.17941   0.00000   0.0000000000
H          H       0.64326   0.27520   0.00000   0.0000000000
H          H       0.59712   0.27612   0.00000   0.0000000000
H          H       0.65321   0.34643   0.00000   0.0000000000
H          H       0.69939   0.34558   0.00000   0.0000000000
H          H       0.74865   0.44133   0.00000   0.0000000000
H          H       0.70252   0.44222   0.00000   0.0000000000
H          H       0.78772   0.43650   0.00000   0.0000000000
H          H       0.68191   0.27026   0.00000   0.0000000000
H          H       0.67404   0.19325   0.00000   0.0000000000
H          H       0.76725   0.22746   0.00000   0.0000000000
H          H       0.73180   0.28666   0.00000   0.0000000000
H          H       0.77802   0.35960   0.00000   0.0000000000
H          H       0.87224   0.39293   0.00000   0.0000000000
H          H       0.83878   0.45250   0.00000   0.0000000000
H          H       0.80718   0.26081   0.00000   0.0000000000
H          H       0.85677   0.30291   0.00000   0.0000000000
H          H       0.86578   0.35305   0.00000   0.0000000000
H          H       0.77145   0.31986   0.00000   0.0000000000
H          H       0.90693   0.44303   0.00000   0.0000000000
H          H       0.61785   0.81611   0.00000   0.0000000000
H          H       0.66491   0.86224   0.00000   0.0000000000
H          H       0.61854   0.91162   0.00000   0.0000000000
H          H       0.57148   0.86552   0.00000   0.0000000000
H          H       0.67893   0.71088   0.00000   0.0000000000
H          H       0.72597   0.75699   0.00000   0.0000000000
H          H       0.67955   0.80635   0.00000   0.0000000000
H          H       0.63250   0.76020   0.00000   0.0000000000
H          H       0.66255   0.95067   0.00000   0.0000000000
H          H       0.72316   0.84504   0.00000   0.0000000000
H          H       0.72978   0.94091   0.00000   0.0000000000
H          H       0.79062   1.03517   0.00000   0.0000000000
H          H       0.69757   1.00161   0.00000   0.0000000000
H          H       0.79230   0.83715   0.00000   0.0000000000
H          H       0.85130   0.93037   0.00000   0.0000000000
H          H       0.75666   0.89490   0.00000   0.0000000000
H          H       0.85787   0.97033   0.00000   0.0000000000
H          H       0.86526   1.01990   0.00000   0.0000000000
H          H       0.82408   1.02882   0.00000   0.0000000000
H          H       0.76306   0.93448   0.00000   0.0000000000
H          H       0.84304   0.85379   0.00000   0.0000000000
H          H       0.88187   0.84874   0.00000   0.0000000000
H          H       0.92778   0.84750   0.00000   0.0000000000
H          H       0.97765   0.94322   0.00000   0.0000000000
H          H       0.93170   0.94446   0.00000   0.0000000000
H          H       1.01672   0.93783   0.00000   0.0000000000
H          H       0.95141   0.48219   0.00000   0.0000000000
H          H       0.99857   0.52816   0.00000   0.0000000000
H          H       0.95262   0.57792   0.00000   0.0000000000
H          H       0.90549   0.53197   0.00000   0.0000000000
H          H       0.69071   1.15914   0.00000   0.0000000000
H          H       0.68577   1.11524   0.00000   0.0000000000
H          H       0.68470   1.06816   0.00000   0.0000000000
H          H       0.78042   1.11426   0.00000   0.0000000000
H          H       0.78150   1.16137   0.00000   0.0000000000
H          H       0.77516   1.06981   0.00000   0.0000000000
C          C       2.28688  -2.29237   0.00000   0.0000000000
C          C       2.34045  -2.27310   0.00000   0.0000000000
C          C       2.34057  -2.30002   0.00000   0.0000000000
C          C       2.36682  -2.30068   0.00000   0.0000000000
C          C       2.39457  -2.27464   0.00000   0.0000000000
C          C       2.39443  -2.24774   0.00000   0.0000000000
C          C       2.36819  -2.24708   0.00000   0.0000000000
C          C       2.44813  -2.25494   0.00000   0.0000000000
C          C       2.47249  -2.26106   0.00000   0.0000000000
C          C       2.46886  -2.28933   0.00000   0.0000000000
C          C       2.49282  -2.29495   0.00000   0.0000000000
C          C       2.52142  -2.26957   0.00000   0.0000000000
C          C       2.52646  -2.24083   0.00000   0.0000000000
C          C       2.50158  -2.23730   0.00000   0.0000000000
C          C       2.55688  -2.21650   0.00000   0.0000000000
C          C       2.48836  -2.32490   0.00000   0.0000000000
C          C       2.45942  -2.35016   0.00000   0.0000000000
C          C       2.45495  -2.37850   0.00000   0.0000000000
C          C       2.47863  -2.38328   0.00000   0.0000000000
C          C       2.50840  -2.35942   0.00000   0.0000000000
C          C       2.51195  -2.33080   0.00000   0.0000000000
C          C       2.53336  -2.36472   0.00000   0.0000000000
C          C       2.52939  -2.39368   0.00000   0.0000000000
C          C       2.55254  -2.39961   0.00000   0.0000000000
C          C       2.58123  -2.37517   0.00000   0.0000000000
C          C       2.58722  -2.34586   0.00000   0.0000000000
C          C       2.56313  -2.34136   0.00000   0.0000000000
C          C       2.61780  -2.32186   0.00000   0.0000000000
C          C       2.54585  -2.43028   0.00000   0.0000000000
C          C       2.56497  -2.46467   0.00000   0.0000000000
C          C       2.53797  -2.49163   0.00000   0.0000000000
C          C       2.53716  -2.51862   0.00000   0.0000000000
C          C       2.56311  -2.52048   0.00000   0.0000000000
C          C       2.59010  -2.49351   0.00000   0.0000000000
C          C       2.59091  -2.46653   0.00000   0.0000000000
C          C       2.58257  -2.55452   0.00000   0.0000000000
C          C       2.57630  -2.58506   0.00000   0.0000000000
C          C       2.03420  -3.09244   0.00000   0.0000000000
C          C       2.01387  -3.38937   0.00000   0.0000000000
C          C       2.04439  -3.36508   0.00000   0.0000000000
C          C       2.06898  -3.36880   0.00000   0.0000000000
C          C       2.09859  -3.34490   0.00000   0.0000000000
C          C       2.10191  -3.31626   0.00000   0.0000000000
C          C       2.07826  -3.31114   0.00000   0.0000000000
C          C       2.04980  -3.33596   0.00000   0.0000000000
C          C       2.08442  -3.28069   0.00000   0.0000000000
C          C       2.12401  -3.34946   0.00000   0.0000000000
C          C       2.12023  -3.37845   0.00000   0.0000000000
C          C       2.14404  -3.38302   0.00000   0.0000000000
C          C       2.17253  -3.35941   0.00000   0.0000000000
C          C       2.17855  -3.32960   0.00000   0.0000000000
C          C       2.15354  -3.32595   0.00000   0.0000000000
C          C       2.20886  -3.30471   0.00000   0.0000000000
C          C       2.23379  -3.30877   0.00000   0.0000000000
C          C       2.26290  -3.28566   0.00000   0.0000000000
C          C       2.26723  -3.25694   0.00000   0.0000000000
C          C       2.24396  -3.25087   0.00000   0.0000000000
C          C       2.21535  -3.27491   0.00000   0.0000000000
C          C       2.06469  -3.24707   0.00000   0.0000000000
C          C       2.09162  -3.22004   0.00000   0.0000000000
C          C       2.09222  -3.19318   0.00000   0.0000000000
C          C       2.06610  -3.19166   0.00000   0.0000000000
C          C       2.03919  -3.21867   0.00000   0.0000000000
C          C       2.03859  -3.24552   0.00000   0.0000000000
C          C       2.04648  -3.15782   0.00000   0.0000000000
C          C       2.05313  -3.12722   0.00000   0.0000000000
C          C       2.08175  -3.10318   0.00000   0.0000000000
C          C       2.08822  -3.07339   0.00000   0.0000000000
C          C       2.06330  -3.06933   0.00000   0.0000000000
C          C       2.02986  -3.12116   0.00000   0.0000000000
C          C       2.11851  -3.04848   0.00000   0.0000000000
C          C       2.14351  -3.05214   0.00000   0.0000000000
C          C       2.17303  -3.02863   0.00000   0.0000000000
C          C       2.17682  -2.99964   0.00000   0.0000000000
C          C       2.15302  -2.99506   0.00000   0.0000000000
C          C       2.12452  -3.01867   0.00000   0.0000000000
C          C       2.19843  -3.03321   0.00000   0.0000000000
C          C       2.19511  -3.06186   0.00000   0.0000000000
C          C       2.21875  -3.06698   0.00000   0.0000000000
C          C       2.24721  -3.04216   0.00000   0.0000000000
C          C       2.25261  -3.01305   0.00000   0.0000000000
C          C       2.22803  -3.00932   0.00000   0.0000000000
C          C       2.21260  -3.09743   0.00000   0.0000000000
C          C       2.28310  -2.98871   0.00000   0.0000000000
C          C       2.23234  -3.13103   0.00000   0.0000000000
C          C       2.20542  -3.15807   0.00000   0.0000000000
C          C       2.20483  -3.18492   0.00000   0.0000000000
C          C       2.23096  -3.18644   0.00000   0.0000000000
C          C       2.25786  -3.15941   0.00000   0.0000000000
C          C       2.25845  -3.13257   0.00000   0.0000000000
C          C       2.25060  -3.22027   0.00000   0.0000000000
C          C       2.31689  -2.93516   0.00000   0.0000000000
C          C       2.34394  -2.93501   0.00000   0.0000000000
C          C       2.37082  -2.90876   0.00000   0.0000000000
C          C       2.37250  -2.88104   0.00000   0.0000000000
C          C       2.34545  -2.88117   0.00000   0.0000000000
C          C       2.31855  -2.90744   0.00000   0.0000000000
C          C       2.40671  -2.82750   0.00000   0.0000000000
C          C       2.43737  -2.80350   0.00000   0.0000000000
C          C       2.46178  -2.80780   0.00000   0.0000000000
C          C       2.49109  -2.78451   0.00000   0.0000000000
C          C       2.49564  -2.75591   0.00000   0.0000000000
C          C       2.47229  -2.74946   0.00000   0.0000000000
C          C       2.44332  -2.77441   0.00000   0.0000000000
C          C       2.51506  -2.79114   0.00000   0.0000000000
C          C       2.47763  -2.71919   0.00000   0.0000000000
C          C       2.50627  -2.69417   0.00000   0.0000000000
C          C       2.51225  -2.66465   0.00000   0.0000000000
C          C       2.48704  -2.66089   0.00000   0.0000000000
C          C       2.45867  -2.68472   0.00000   0.0000000000
C          C       2.45382  -2.71320   0.00000   0.0000000000
C          C       2.54223  -2.63924   0.00000   0.0000000000
C          C       2.56753  -2.64259   0.00000   0.0000000000
C          C       2.59631  -2.61897   0.00000   0.0000000000
C          C       2.59998  -2.59050   0.00000   0.0000000000
C          C       2.54797  -2.60962   0.00000   0.0000000000
C          C       2.62056  -2.62518   0.00000   0.0000000000
C          C       2.56851  -2.77153   0.00000   0.0000000000
C          C       2.67390  -2.60545   0.00000   0.0000000000
C          C       2.56861  -2.79844   0.00000   0.0000000000
C          C       2.59487  -2.79903   0.00000   0.0000000000
C          C       2.62252  -2.77293   0.00000   0.0000000000
C          C       2.62241  -2.74601   0.00000   0.0000000000
C          C       2.59615  -2.74541   0.00000   0.0000000000
C          C       2.67404  -2.63236   0.00000   0.0000000000
C          C       2.70033  -2.63291   0.00000   0.0000000000
C          C       2.72795  -2.60676   0.00000   0.0000000000
C          C       2.72780  -2.57987   0.00000   0.0000000000
C          C       2.70153  -2.57932   0.00000   0.0000000000
C          C       2.78142  -2.58699   0.00000   0.0000000000
C          C       2.80544  -2.59354   0.00000   0.0000000000
C          C       2.67586  -2.75317   0.00000   0.0000000000
C          C       2.70018  -2.75928   0.00000   0.0000000000
C          C       2.69660  -2.78771   0.00000   0.0000000000
C          C       2.72033  -2.79307   0.00000   0.0000000000
C          C       2.74862  -2.76845   0.00000   0.0000000000
C          C       2.75429  -2.73886   0.00000   0.0000000000
C          C       2.72894  -2.73560   0.00000   0.0000000000
C          C       2.80091  -2.62214   0.00000   0.0000000000
C          C       2.82425  -2.62858   0.00000   0.0000000000
C          C       2.85322  -2.60361   0.00000   0.0000000000
C          C       2.85918  -2.57451   0.00000   0.0000000000
C          C       2.83475  -2.57024   0.00000   0.0000000000
C          C       2.78426  -2.71342   0.00000   0.0000000000
C          C       2.81888  -2.65887   0.00000   0.0000000000
C          C       2.80949  -2.71715   0.00000   0.0000000000
C          C       2.83785  -2.69332   0.00000   0.0000000000
C          C       2.84269  -2.66484   0.00000   0.0000000000
C          C       2.79022  -2.68390   0.00000   0.0000000000
C          C       2.88985  -2.55051   0.00000   0.0000000000
C          C       2.59045  -2.16316   0.00000   0.0000000000
C          C       2.65157  -2.26839   0.00000   0.0000000000
C          C       2.61749  -2.16304   0.00000   0.0000000000
C          C       2.64435  -2.13679   0.00000   0.0000000000
C          C       2.64587  -2.10914   0.00000   0.0000000000
C          C       2.61886  -2.10925   0.00000   0.0000000000
C          C       2.59200  -2.13550   0.00000   0.0000000000
C          C       2.67860  -2.26826   0.00000   0.0000000000
C          C       2.70544  -2.24200   0.00000   0.0000000000
C          C       2.70696  -2.21436   0.00000   0.0000000000
C          C       2.67992  -2.21449   0.00000   0.0000000000
C          C       2.65307  -2.24076   0.00000   0.0000000000
C          C       2.67972  -2.05568   0.00000   0.0000000000
C          C       2.74054  -2.16102   0.00000   0.0000000000
C          C       2.77097  -2.13671   0.00000   0.0000000000
C          C       2.71031  -2.03170   0.00000   0.0000000000
C          C       2.73440  -2.03620   0.00000   0.0000000000
C          C       2.76417  -2.01283   0.00000   0.0000000000
C          C       2.76815  -1.98387   0.00000   0.0000000000
C          C       2.74498  -1.97796   0.00000   0.0000000000
C          C       2.71629  -2.00239   0.00000   0.0000000000
C          C       2.79582  -2.14029   0.00000   0.0000000000
C          C       2.82492  -2.11655   0.00000   0.0000000000
C          C       2.82860  -2.08826   0.00000   0.0000000000
C          C       2.80467  -2.08260   0.00000   0.0000000000
C          C       2.77605  -2.10796   0.00000   0.0000000000
C          C       2.78914  -2.01811   0.00000   0.0000000000
C          C       2.80916  -2.05265   0.00000   0.0000000000
C          C       2.83811  -2.02740   0.00000   0.0000000000
C          C       2.84259  -1.99905   0.00000   0.0000000000
C          C       2.81892  -1.99426   0.00000   0.0000000000
C          C       2.78558  -2.04673   0.00000   0.0000000000
C          C       2.84924  -2.12274   0.00000   0.0000000000
C          C       2.90274  -2.10316   0.00000   0.0000000000
C          C       2.90278  -2.13011   0.00000   0.0000000000
C          C       2.92896  -2.13087   0.00000   0.0000000000
C          C       2.95674  -2.10490   0.00000   0.0000000000
C          C       2.95673  -2.07793   0.00000   0.0000000000
C          C       2.93053  -2.07717   0.00000   0.0000000000
C          C       3.01024  -2.08572   0.00000   0.0000000000
C          C       2.92416  -2.49696   0.00000   0.0000000000
C          C       2.95117  -2.49690   0.00000   0.0000000000
C          C       2.97811  -2.47069   0.00000   0.0000000000
C          C       2.97989  -2.44291   0.00000   0.0000000000
C          C       2.95288  -2.44298   0.00000   0.0000000000
C          C       2.92594  -2.46919   0.00000   0.0000000000
C          C       2.71418  -1.82356   0.00000   0.0000000000
C          C       2.73387  -1.85741   0.00000   0.0000000000
C          C       2.70696  -1.88445   0.00000   0.0000000000
C          C       2.70629  -1.91136   0.00000   0.0000000000
C          C       2.73231  -1.91307   0.00000   0.0000000000
C          C       2.75924  -1.88604   0.00000   0.0000000000
C          C       2.75991  -1.85912   0.00000   0.0000000000
C          C       2.75162  -1.94730   0.00000   0.0000000000
N          N       2.31434  -2.27117   0.00000   0.0000000000
N          N       2.42077  -2.27641   0.00000   0.0000000000
N          N       2.56704  -2.43657   0.00000   0.0000000000
N          N       2.56119  -2.54852   0.00000   0.0000000000
N          N       2.00790  -3.41676   0.00000   0.0000000000
N          N       2.06288  -3.27498   0.00000   0.0000000000
N          N       2.06785  -3.16380   0.00000   0.0000000000
N          N       2.23414  -3.10313   0.00000   0.0000000000
N          N       2.22923  -3.21429   0.00000   0.0000000000
N          N       2.28895  -2.96137   0.00000   0.0000000000
N          N       2.40051  -2.85494   0.00000   0.0000000000
N          N       2.54240  -2.76977   0.00000   0.0000000000
N          N       2.64780  -2.60365   0.00000   0.0000000000
N          N       2.64862  -2.77474   0.00000   0.0000000000
N          N       2.75410  -2.60843   0.00000   0.0000000000
N          N       2.56254  -2.18927   0.00000   0.0000000000
N          N       2.62373  -2.29452   0.00000   0.0000000000
N          N       2.67374  -2.08303   0.00000   0.0000000000
N          N       2.73487  -2.18825   0.00000   0.0000000000
N          N       2.87660  -2.10129   0.00000   0.0000000000
N          N       2.98278  -2.10691   0.00000   0.0000000000
N          N       2.89610  -2.52304   0.00000   0.0000000000
N          N       2.73565  -1.82945   0.00000   0.0000000000
N          N       2.73039  -1.94110   0.00000   0.0000000000
