data_TP-COF
_audit_creation_date              0000-00-00
_audit_creation_method            'LanYouShi'
_symmetry_space_group_name_H-M    'P1'
_cell_length_a                    37.5411987
_cell_length_b                    37.5411987
_cell_length_c                    3.3784001
_cell_angle_alpha                 90.0000000
_cell_angle_beta                  90.0000000
_cell_angle_gamma                 120.0000000
loop_
_atom_site_label
_atom_site_type_symbol
_atom_site_fract_x
_atom_site_fract_y
_atom_site_fract_z
_atom_site_U_iso_or_equiv
_atom_site_adp_type
_atom_site_occupancy
        C1          C  0.2945700  0.6281400  0.5000000    0.00000       Uiso       1.00
        C2          C  0.3338800  0.5916700  0.5000000    0.00000       Uiso       1.00
        C3          C  0.3709700  0.5916700  0.5000000    0.00000       Uiso       1.00
        O1          O  0.3789900  0.5596400  0.5000000    0.00000       Uiso       1.00
        C4          C  0.4242800  0.5112600  0.5000000    0.00000       Uiso       1.00
        C5          C  0.4451300  0.4890200  0.5000000    0.00000       Uiso       1.00
        C6          C  0.4239000  0.4447700  0.5000000    0.00000       Uiso       1.00
        C7          C  0.3718601  0.6664301  0.5000000    0.00000       Uiso       1.00
        C8          C  0.4083301  0.7422101  0.5000000    0.00000       Uiso       1.00
        C9          C  0.4083301  0.7793001  0.5000000    0.00000       Uiso       1.00
        O2          O  0.4403600  0.8193501  0.5000000    0.00000       Uiso       1.00
       C10          C  0.4887400  0.9130200  0.5000000    0.00000       Uiso       1.00
       C11          C  0.5109800  0.9561101  0.5000000    0.00000       Uiso       1.00
       C12          C  0.5552300  0.9791300  0.5000000    0.00000       Uiso       1.00
       C13          C  0.3335700  0.7054300  0.5000000    0.00000       Uiso       1.00
       C14          C  0.2577900  0.6661200  0.5000000    0.00000       Uiso       1.00
       C15          C  0.2207000  0.6290300  0.5000000    0.00000       Uiso       1.00
        O3          O  0.1806500  0.6210101  0.5000000    0.00000       Uiso       1.00
       C16          C  0.0869800  0.5757200  0.5000000    0.00000       Uiso       1.00
       C17          C  0.0438900  0.5548700  0.5000000    0.00000       Uiso       1.00
       C18          C  0.0208700  0.5761001  0.5000000    0.00000       Uiso       1.00
       C19          C  0.7054300  0.3718601  0.5000000    0.00000       Uiso       1.00
       C20          C  0.6661200  0.4083300  0.5000000    0.00000       Uiso       1.00
       C21          C  0.6290300  0.4083300  0.5000000    0.00000       Uiso       1.00
        O4          O  0.6210100  0.4403600  0.5000000    0.00000       Uiso       1.00
       C22          C  0.5757200  0.4887400  0.5000000    0.00000       Uiso       1.00
       C23          C  0.5548700  0.5109800  0.5000000    0.00000       Uiso       1.00
       C24          C  0.5761000  0.5552300  0.5000000    0.00000       Uiso       1.00
       C25          C  0.6281400  0.3335700  0.5000000    0.00000       Uiso       1.00
       C26          C  0.5916700  0.2577900  0.5000000    0.00000       Uiso       1.00
       C27          C  0.5916700  0.2207000  0.5000000    0.00000       Uiso       1.00
        O5          O  0.5596400  0.1806500  0.5000000    0.00000       Uiso       1.00
       C28          C  0.5112600  0.0869800  0.5000000    0.00000       Uiso       1.00
       C29          C  0.4890200  0.0438900  0.5000000    0.00000       Uiso       1.00
       C30          C  0.4447700  0.0208700  0.5000000    0.00000       Uiso       1.00
       C31          C  0.6664301  0.2945700  0.5000000    0.00000       Uiso       1.00
       C32          C  0.7422100  0.3338800  0.5000000    0.00000       Uiso       1.00
       C33          C  0.7793000  0.3709700  0.5000000    0.00000       Uiso       1.00
        O6          O  0.8193501  0.3789900  0.5000000    0.00000       Uiso       1.00
       C34          C  0.9130200  0.4242800  0.5000000    0.00000       Uiso       1.00
       C35          C  0.9561101  0.4451300  0.5000000    0.00000       Uiso       1.00
       C36          C  0.9791300  0.4239000  0.5000000    0.00000       Uiso       1.00
       C37          C  0.6281400  0.2945700  0.5000000    0.00000       Uiso       1.00
       C38          C  0.5916700  0.3338800  0.5000000    0.00000       Uiso       1.00
       C39          C  0.5916700  0.3709700  0.5000000    0.00000       Uiso       1.00
        O7          O  0.5596400  0.3789900  0.5000000    0.00000       Uiso       1.00
       C40          C  0.5112600  0.4242800  0.5000000    0.00000       Uiso       1.00
       C41          C  0.4890200  0.4451300  0.5000000    0.00000       Uiso       1.00
       C42          C  0.4447700  0.4239000  0.5000000    0.00000       Uiso       1.00
       C43          C  0.6664301  0.3718601  0.5000000    0.00000       Uiso       1.00
       C44          C  0.7422101  0.4083300  0.5000000    0.00000       Uiso       1.00
       C45          C  0.7793000  0.4083300  0.5000000    0.00000       Uiso       1.00
        O8          O  0.8193500  0.4403600  0.5000000    0.00000       Uiso       1.00
       C46          C  0.9130200  0.4887400  0.5000000    0.00000       Uiso       1.00
       C47          C  0.9561100  0.5109800  0.5000000    0.00000       Uiso       1.00
       C48          C  0.9791300  0.5552300  0.5000000    0.00000       Uiso       1.00
       C49          C  0.7054300  0.3335700  0.5000000    0.00000       Uiso       1.00
       C50          C  0.6661201  0.2577900  0.5000000    0.00000       Uiso       1.00
       C51          C  0.6290300  0.2207000  0.5000000    0.00000       Uiso       1.00
        O9          O  0.6210100  0.1806500  0.5000000    0.00000       Uiso       1.00
       C52          C  0.5757200  0.0869800  0.5000000    0.00000       Uiso       1.00
       C53          C  0.5548701  0.0438900  0.5000000    0.00000       Uiso       1.00
       C54          C  0.5761000  0.0208700  0.5000000    0.00000       Uiso       1.00
       C55          C  0.3718600  0.7054300  0.5000000    0.00000       Uiso       1.00
       C56          C  0.4083301  0.6661200  0.5000000    0.00000       Uiso       1.00
       C57          C  0.4083301  0.6290300  0.5000000    0.00000       Uiso       1.00
       O10          O  0.4403600  0.6210101  0.5000000    0.00000       Uiso       1.00
       C58          C  0.4887401  0.5757200  0.5000000    0.00000       Uiso       1.00
       C59          C  0.5109800  0.5548700  0.5000000    0.00000       Uiso       1.00
       C60          C  0.5552300  0.5761001  0.5000000    0.00000       Uiso       1.00
       C61          C  0.3335700  0.6281400  0.5000000    0.00000       Uiso       1.00
       C62          C  0.2577900  0.5916700  0.5000000    0.00000       Uiso       1.00
       C63          C  0.2207000  0.5916700  0.5000000    0.00000       Uiso       1.00
       O11          O  0.1806500  0.5596400  0.5000000    0.00000       Uiso       1.00
       C64          C  0.0869800  0.5112600  0.5000000    0.00000       Uiso       1.00
       C65          C  0.0438900  0.4890200  0.5000000    0.00000       Uiso       1.00
       C66          C  0.0208700  0.4447700  0.5000000    0.00000       Uiso       1.00
       C67          C  0.2945700  0.6664301  0.5000000    0.00000       Uiso       1.00
       C68          C  0.3338800  0.7422101  0.5000000    0.00000       Uiso       1.00
       C69          C  0.3709700  0.7793001  0.5000000    0.00000       Uiso       1.00
       O12          O  0.3789900  0.8193501  0.5000000    0.00000       Uiso       1.00
       C70          C  0.4242800  0.9130200  0.5000000    0.00000       Uiso       1.00
       C71          C  0.4451300  0.9561101  0.5000000    0.00000       Uiso       1.00
       C72          C  0.4239000  0.9791300  0.5000000    0.00000       Uiso       1.00
       C73          C  0.4455200  0.5544800  0.5000000    0.00000       Uiso       1.00
       C74          C  0.4890500  0.5109501  0.5000000    0.00000       Uiso       1.00
        B1          B  0.4218100  0.5781900  0.5000000    0.00000       Uiso       1.00
       C75          C  0.4455200  0.8910400  0.5000000    0.00000       Uiso       1.00
       C76          C  0.4890500  0.9781000  0.5000000    0.00000       Uiso       1.00
        B2          B  0.4218100  0.8436200  0.5000000    0.00000       Uiso       1.00
       C77          C  0.1089600  0.5544800  0.5000000    0.00000       Uiso       1.00
       C78          C  0.0219000  0.5109501  0.5000000    0.00000       Uiso       1.00
        B3          B  0.1563800  0.5781900  0.5000000    0.00000       Uiso       1.00
       C79          C  0.5544800  0.4455200  0.5000000    0.00000       Uiso       1.00
       C80          C  0.5109500  0.4890500  0.5000000    0.00000       Uiso       1.00
        B4          B  0.5781900  0.4218100  0.5000000    0.00000       Uiso       1.00
       C81          C  0.5544800  0.1089600  0.5000000    0.00000       Uiso       1.00
       C82          C  0.5109500  0.0219000  0.5000000    0.00000       Uiso       1.00
        B5          B  0.5781900  0.1563800  0.5000000    0.00000       Uiso       1.00
       C83          C  0.8910400  0.4455200  0.5000000    0.00000       Uiso       1.00
       C84          C  0.9781000  0.4890500  0.5000000    0.00000       Uiso       1.00
        B6          B  0.8436200  0.4218100  0.5000000    0.00000       Uiso       1.00
        H1          H  0.3036427  0.5611756  0.5000000    0.00000       Uiso       1.00
        H2          H  0.3892217  0.4942963  0.5000000    0.00000       Uiso       1.00
        H3          H  0.3888452  0.4265336  0.5000000    0.00000       Uiso       1.00
        H4          H  0.4388244  0.7424671  0.5000000    0.00000       Uiso       1.00
        H5          H  0.5057037  0.8949255  0.5000000    0.00000       Uiso       1.00
        H6          H  0.5734664  0.9623116  0.5000000    0.00000       Uiso       1.00
        H7          H  0.2575329  0.6963573  0.5000000    0.00000       Uiso       1.00
        H8          H  0.1050746  0.6107783  0.5000000    0.00000       Uiso       1.00
        H9          H  0.0376884  0.6111548  0.5000000    0.00000       Uiso       1.00
       H10          H  0.6963573  0.4388244  0.5000000    0.00000       Uiso       1.00
       H11          H  0.6107783  0.5057037  0.5000000    0.00000       Uiso       1.00
       H12          H  0.6111549  0.5734664  0.5000000    0.00000       Uiso       1.00
       H13          H  0.5611757  0.2575329  0.5000000    0.00000       Uiso       1.00
       H14          H  0.4942963  0.1050746  0.5000000    0.00000       Uiso       1.00
       H15          H  0.4265336  0.0376884  0.5000000    0.00000       Uiso       1.00
       H16          H  0.7424671  0.3036427  0.5000000    0.00000       Uiso       1.00
       H17          H  0.8949255  0.3892217  0.5000000    0.00000       Uiso       1.00
       H18          H  0.9623116  0.3888452  0.5000000    0.00000       Uiso       1.00
       H19          H  0.5611756  0.3036427  0.5000000    0.00000       Uiso       1.00
       H20          H  0.4942963  0.3892217  0.5000000    0.00000       Uiso       1.00
       H21          H  0.4265336  0.3888452  0.5000000    0.00000       Uiso       1.00
       H22          H  0.7424671  0.4388244  0.5000000    0.00000       Uiso       1.00
       H23          H  0.8949255  0.5057037  0.5000000    0.00000       Uiso       1.00
       H24          H  0.9623116  0.5734664  0.5000000    0.00000       Uiso       1.00
       H25          H  0.6963573  0.2575329  0.5000000    0.00000       Uiso       1.00
       H26          H  0.6107783  0.1050746  0.5000000    0.00000       Uiso       1.00
       H27          H  0.6111549  0.0376884  0.5000000    0.00000       Uiso       1.00
       H28          H  0.4388244  0.6963573  0.5000000    0.00000       Uiso       1.00
       H29          H  0.5057037  0.6107783  0.5000000    0.00000       Uiso       1.00
       H30          H  0.5734664  0.6111548  0.5000000    0.00000       Uiso       1.00
       H31          H  0.2575329  0.5611756  0.5000000    0.00000       Uiso       1.00
       H32          H  0.1050746  0.4942963  0.5000000    0.00000       Uiso       1.00
       H33          H  0.0376884  0.4265336  0.5000000    0.00000       Uiso       1.00
       H34          H  0.3036427  0.7424671  0.5000000    0.00000       Uiso       1.00
       H35          H  0.3892217  0.8949255  0.5000000    0.00000       Uiso       1.00
       H36          H  0.3888452  0.9623116  0.5000000    0.00000       Uiso       1.00
