data_crystal
 
_cell_length_a    30.11420
_cell_length_b    30.11420
_cell_length_c    3.45830
_cell_angle_alpha 90.00000
_cell_angle_beta  90.00000
_cell_angle_gamma 120.00000
 
_symmetry_space_group_name_Hall 'P 1'
_symmetry_space_group_name_H-M  'P 1'
 
loop_
_symmetry_equiv_pos_as_xyz
 'x,y,z' 
 
loop_
_atom_site_label
_atom_site_type_symbol
_atom_site_fract_x
_atom_site_fract_y
_atom_site_fract_z
_atom_site_charge
O          O       0.30240   0.56701   0.00000   0.0000000000
O          O       0.43299   0.73539   0.00000   0.0000000000
O          O       0.26460   0.69760   0.00000   0.0000000000
O          O       0.69760   0.43299   0.00000   0.0000000000
O          O       0.56701   0.26460   0.00000   0.0000000000
O          O       0.73539   0.30240   0.00000   0.0000000000
N          N       0.40088   0.58720   0.00000   0.0000000000
N          N       0.41280   0.81368   0.00000   0.0000000000
N          N       0.18632   0.59912   0.00000   0.0000000000
N          N       0.59912   0.41280   0.00000   0.0000000000
N          N       0.58720   0.18632   0.00000   0.0000000000
N          N       0.81368   0.40088   0.00000   0.0000000000
C          C       0.31736   0.61412   0.00000   0.0000000000
C          C       0.38588   0.70324   0.00000   0.0000000000
C          C       0.29676   0.68264   0.00000   0.0000000000
C          C       0.68264   0.38588   0.00000   0.0000000000
C          C       0.61412   0.29676   0.00000   0.0000000000
C          C       0.70324   0.31736   0.00000   0.0000000000
C          C       0.40967   0.63604   0.00000   0.0000000000
C          C       0.36396   0.77362   0.00000   0.0000000000
C          C       0.22638   0.59033   0.00000   0.0000000000
C          C       0.59033   0.36396   0.00000   0.0000000000
C          C       0.63604   0.22638   0.00000   0.0000000000
C          C       0.77362   0.40967   0.00000   0.0000000000
N          N       0.43106   0.56693   0.00000   0.0000000000
N          N       0.43307   0.86413   0.00000   0.0000000000
N          N       0.13587   0.56894   0.00000   0.0000000000
N          N       0.56894   0.43307   0.00000   0.0000000000
N          N       0.56693   0.13587   0.00000   0.0000000000
N          N       0.86413   0.43106   0.00000   0.0000000000
C          C       0.48393   0.59354   0.00000   0.0000000000
C          C       0.40646   0.89039   0.00000   0.0000000000
C          C       0.10961   0.51607   0.00000   0.0000000000
C          C       0.51607   0.40646   0.00000   0.0000000000
C          C       0.59354   0.10961   0.00000   0.0000000000
C          C       0.89039   0.48393   0.00000   0.0000000000
C          C       0.51263   0.56787   0.00000   0.0000000000
C          C       0.43213   0.94475   0.00000   0.0000000000
C          C       0.05525   0.48737   0.00000   0.0000000000
C          C       0.48737   0.43213   0.00000   0.0000000000
C          C       0.56787   0.05525   0.00000   0.0000000000
C          C       0.94475   0.51263   0.00000   0.0000000000
C          C       0.48613   0.51350   0.00000   0.0000000000
C          C       0.48650   0.97263   0.00000   0.0000000000
C          C       0.02737   0.51386   0.00000   0.0000000000
C          C       0.51386   0.48650   0.00000   0.0000000000
C          C       0.51350   0.02737   0.00000   0.0000000000
C          C       0.97263   0.48613   0.00000   0.0000000000
C          C       0.43179   0.48617   0.00000   0.0000000000
C          C       0.51383   0.94562   0.00000   0.0000000000
C          C       0.05437   0.56820   0.00000   0.0000000000
C          C       0.56820   0.51383   0.00000   0.0000000000
C          C       0.48617   0.05437   0.00000   0.0000000000
C          C       0.94562   0.43179   0.00000   0.0000000000
C          C       0.40541   0.51409   0.00000   0.0000000000
C          C       0.48591   0.89131   0.00000   0.0000000000
C          C       0.10868   0.59459   0.00000   0.0000000000
C          C       0.59459   0.48591   0.00000   0.0000000000
C          C       0.51409   0.10868   0.00000   0.0000000000
C          C       0.89131   0.40541   0.00000   0.0000000000
C          C       0.37092   0.65024   0.00000   0.0000000000
C          C       0.34976   0.72068   0.00000   0.0000000000
C          C       0.27932   0.62908   0.00000   0.0000000000
C          C       0.62908   0.34976   0.00000   0.0000000000
C          C       0.65024   0.27932   0.00000   0.0000000000
C          C       0.72068   0.37092   0.00000   0.0000000000
H          H       0.44669   0.66473   0.00000   0.0000000000
H          H       0.33527   0.78196   0.00000   0.0000000000
H          H       0.21804   0.55331   0.00000   0.0000000000
H          H       0.55331   0.33527   0.00000   0.0000000000
H          H       0.66473   0.21804   0.00000   0.0000000000
H          H       0.78196   0.44669   0.00000   0.0000000000
O          O       0.50891   0.64156   0.00000   0.0000000000
O          O       0.35844   0.86736   0.00000   0.0000000000
O          O       0.13264   0.49109   0.00000   0.0000000000
O          O       0.49109   0.35844   0.00000   0.0000000000
O          O       0.64156   0.13264   0.00000   0.0000000000
O          O       0.86736   0.50891   0.00000   0.0000000000
H          H       0.36502   0.56236   0.00000   0.0000000000
H          H       0.43763   0.80266   0.00000   0.0000000000
H          H       0.19734   0.63497   0.00000   0.0000000000
H          H       0.63497   0.43763   0.00000   0.0000000000
H          H       0.56236   0.19734   0.00000   0.0000000000
H          H       0.80266   0.36502   0.00000   0.0000000000
O          O       0.35717   0.48885   0.00000   0.0000000000
O          O       0.51115   0.86831   0.00000   0.0000000000
O          O       0.13168   0.64283   0.00000   0.0000000000
O          O       0.64283   0.51115   0.00000   0.0000000000
O          O       0.48885   0.13168   0.00000   0.0000000000
O          O       0.86831   0.35717   0.00000   0.0000000000
C          C       0.97236   0.56685   0.00000   0.0000000000
C          C       0.02610   0.59411   0.00000   0.0000000000
H          H       0.95368   0.58738   0.00000   0.0000000000
H          H       0.04428   0.63330   0.00000   0.0000000000
C          C       0.43314   0.40551   0.00000   0.0000000000
C          C       0.40589   0.43199   0.00000   0.0000000000
H          H       0.41261   0.36630   0.00000   0.0000000000
H          H       0.36670   0.41098   0.00000   0.0000000000
C          C       0.59449   0.02764   0.00000   0.0000000000
C          C       0.56801   0.97390   0.00000   0.0000000000
H          H       0.63370   0.04632   0.00000   0.0000000000
H          H       0.58902   0.95572   0.00000   0.0000000000
C          C       0.02764   0.43314   0.00000   0.0000000000
C          C       0.97390   0.40589   0.00000   0.0000000000
H          H       0.04632   0.41261   0.00000   0.0000000000
H          H       0.95572   0.36670   0.00000   0.0000000000
C          C       0.56685   0.59449   0.00000   0.0000000000
C          C       0.59411   0.56801   0.00000   0.0000000000
H          H       0.58738   0.63370   0.00000   0.0000000000
H          H       0.63330   0.58902   0.00000   0.0000000000
C          C       0.40551   0.97236   0.00000   0.0000000000
C          C       0.43199   0.02610   0.00000   0.0000000000
H          H       0.36630   0.95368   0.00000   0.0000000000
H          H       0.41098   0.04428   0.00000   0.0000000000
