data_crystal
 
_cell_length_a    52.20000
_cell_length_b    52.20000
_cell_length_c    3.80000
_cell_angle_alpha 90.00000
_cell_angle_beta  90.00000
_cell_angle_gamma 120.00000
 
_symmetry_space_group_name_Hall 'P 1'
_symmetry_space_group_name_H-M  'P 1'
 
loop_
_symmetry_equiv_pos_as_xyz
 'x,y,z' 
 
loop_
_atom_site_label
_atom_site_type_symbol
_atom_site_fract_x
_atom_site_fract_y
_atom_site_fract_z
_atom_site_charge
C          C       0.91955   0.94724  -0.01394   0.0000000000
N          N       0.69905   0.87622  -0.01391   0.0000000000
C          C       0.72863   0.88841   0.02061   0.0000000000
C          C       0.74200   0.91883   0.06597   0.0000000000
C          C       0.71977   0.92569   0.05331   0.0000000000
C          C       0.82388   0.93150  -0.21349   0.0000000000
C          C       0.79300   0.91588  -0.21168   0.0000000000
C          C       0.94570   0.00046  -0.03098   0.0000000000
C          C       0.97289   0.00079  -0.02418   0.0000000000
C          C       0.41390   0.72073   0.03347   0.0000000000
N          N       0.63444   0.79159   0.03275   0.0000000000
C          C       0.63945   0.76894   0.08877   0.0000000000
C          C       0.60489   0.77964   0.06862   0.0000000000
C          C       0.59155   0.74965   0.15129   0.0000000000
C          C       0.61379   0.74277   0.16147   0.0000000000
C          C       0.50943   0.73532  -0.15931   0.0000000000
C          C       0.54032   0.75089  -0.16343   0.0000000000
O          O       0.44211   0.74513   0.04853   0.0000000000
C          C       0.38758   0.66751   0.00825   0.0000000000
C          C       0.36041   0.66725   0.02005   0.0000000000
C          C       0.41387   0.69447   0.01038   0.0000000000
C          C       0.63943   0.87159  -0.06308   0.0000000000
C          C       0.60486   0.82636  -0.03735   0.0000000000
C          C       0.59148   0.84300  -0.11765   0.0000000000
C          C       0.61372   0.87210  -0.13138   0.0000000000
C          C       0.50951   0.77532   0.19948   0.0000000000
C          C       0.54041   0.79061   0.20144   0.0000000000
C          C       0.38765   0.72147   0.03575   0.0000000000
C          C       0.36045   0.69460   0.02411   0.0000000000
C          C       0.91949   0.97347  -0.03042   0.0000000000
N          N       0.69904   0.82386   0.02666   0.0000000000
C          C       0.69399   0.79595   0.00920   0.0000000000
C          C       0.72858   0.84119  -0.01499   0.0000000000
C          C       0.74185   0.82408  -0.06292   0.0000000000
C          C       0.71962   0.79500  -0.04449   0.0000000000
C          C       0.82426   0.89354   0.18900   0.0000000000
C          C       0.79337   0.87827   0.19712   0.0000000000
O          O       0.89131   0.96966  -0.04227   0.0000000000
C          C       0.94583   0.94658  -0.01434   0.0000000000
C          C       0.66674   0.89724  -0.03767   0.0000000000
C          C       0.66672   0.77056   0.05815   0.0000000000
C          C       0.83951   0.92024  -0.01474   0.0000000000
B          B       0.87376   0.93740  -0.01955   0.0000000000
C          C       0.58950   0.79531   0.01666   0.0000000000
C          C       0.49401   0.74759   0.02058   0.0000000000
C          C       0.55629   0.77871   0.01841   0.0000000000
B          B       0.45971   0.73047   0.02151   0.0000000000
C          C       0.69406   0.89911   0.00000   0.0000000000
O          O       0.89142   0.92280   0.00000   0.0000000000
N          N       0.63444   0.84395   0.00000   0.0000000000
O          O       0.44205   0.69821   0.00000   0.0000000000
C          C       0.74400   0.87249   0.00000   0.0000000000
C          C       0.77723   0.88910   0.00000   0.0000000000
C          C       0.97284   0.97363  -0.02418   0.0000000000
H          H       0.38777   0.64578  -0.00286   0.0000000000
H          H       0.38825   0.74359   0.04691   0.0000000000
H          H       0.21501   0.71195   0.33961   0.0000000000
H          H       0.18748   0.74054   0.34805   0.0000000000
H          H       0.28695   0.78372  -0.29859   0.0000000000
H          H       0.25844   0.81132  -0.31081   0.0000000000
H          H       0.76697   0.93263   0.10369   0.0000000000
H          H       0.72523   0.94962   0.08511   0.0000000000
H          H       0.83631   0.95286  -0.37122   0.0000000000
H          H       0.78021   0.92406  -0.37519   0.0000000000
H          H       0.94544   0.02216  -0.03684   0.0000000000
H          H       0.56663   0.73619   0.19496   0.0000000000
H          H       0.61472   0.72174   0.21326   0.0000000000
H          H       0.56651   0.83155  -0.15727   0.0000000000
H          H       0.60822   0.89023  -0.19040   0.0000000000
H          H       0.76675   0.83520  -0.10655   0.0000000000
H          H       0.71874   0.77278  -0.06359   0.0000000000
H          H       0.83704   0.88479   0.34269   0.0000000000
H          H       0.78095   0.85721   0.36010   0.0000000000
H          H       0.94529   0.92448  -0.00681   0.0000000000
H          H       0.66821   0.91977  -0.04719   0.0000000000
H          H       0.66824   0.74955   0.07272   0.0000000000
C          C       0.05276   0.97231  -0.01394   0.0000000000
N          N       0.12378   0.82283  -0.01391   0.0000000000
C          C       0.11159   0.84022   0.02061   0.0000000000
C          C       0.08117   0.82317   0.06597   0.0000000000
C          C       0.07431   0.79408   0.05331   0.0000000000
C          C       0.06850   0.89238  -0.21349   0.0000000000
C          C       0.08412   0.87712  -0.21168   0.0000000000
C          C       0.99954   0.94524  -0.03098   0.0000000000
C          C       0.99921   0.97210  -0.02418   0.0000000000
C          C       0.27927   0.69317   0.03347   0.0000000000
N          N       0.20841   0.84285   0.03275   0.0000000000
C          C       0.23106   0.87051   0.08877   0.0000000000
C          C       0.22036   0.82525   0.06862   0.0000000000
C          C       0.25035   0.84190   0.15129   0.0000000000
C          C       0.25723   0.87102   0.16147   0.0000000000
C          C       0.26468   0.77411  -0.15931   0.0000000000
C          C       0.24911   0.78943  -0.16343   0.0000000000
O          O       0.25487   0.69698   0.04853   0.0000000000
C          C       0.33249   0.72007   0.00825   0.0000000000
C          C       0.33275   0.69316   0.02005   0.0000000000
C          C       0.30553   0.71940   0.01038   0.0000000000
C          C       0.12841   0.76784  -0.06308   0.0000000000
C          C       0.17364   0.77850  -0.03735   0.0000000000
C          C       0.15700   0.74848  -0.11765   0.0000000000
C          C       0.12790   0.74162  -0.13138   0.0000000000
C          C       0.22468   0.73419   0.19948   0.0000000000
C          C       0.20939   0.74980   0.20144   0.0000000000
C          C       0.27853   0.66618   0.03575   0.0000000000
C          C       0.30540   0.66585   0.02411   0.0000000000
C          C       0.02653   0.94602  -0.03042   0.0000000000
N          N       0.17614   0.87518   0.02666   0.0000000000
C          C       0.20405   0.89804   0.00920   0.0000000000
C          C       0.15881   0.88739  -0.01499   0.0000000000
C          C       0.17592   0.91777  -0.06292   0.0000000000
C          C       0.20500   0.92462  -0.04449   0.0000000000
C          C       0.10646   0.93072   0.18900   0.0000000000
C          C       0.12173   0.91510   0.19712   0.0000000000
O          O       0.03034   0.92165  -0.04227   0.0000000000
C          C       0.05342   0.99925  -0.01434   0.0000000000
C          C       0.10276   0.76950  -0.03767   0.0000000000
C          C       0.22944   0.89616   0.05815   0.0000000000
C          C       0.07976   0.91927  -0.01474   0.0000000000
B          B       0.06260   0.93636  -0.01955   0.0000000000
C          C       0.20469   0.79419   0.01666   0.0000000000
C          C       0.25241   0.74642   0.02058   0.0000000000
C          C       0.22129   0.77758   0.01841   0.0000000000
B          B       0.26953   0.72924   0.02151   0.0000000000
C          C       0.10089   0.79495   0.00000   0.0000000000
O          O       0.07720   0.96862   0.00000   0.0000000000
N          N       0.15605   0.79049   0.00000   0.0000000000
O          O       0.30179   0.74384   0.00000   0.0000000000
C          C       0.12751   0.87151   0.00000   0.0000000000
C          C       0.11090   0.88813   0.00000   0.0000000000
C          C       0.02637   0.99921  -0.02418   0.0000000000
H          H       0.35422   0.74199  -0.00286   0.0000000000
H          H       0.25641   0.64466   0.04691   0.0000000000
H          H       0.28805   0.50305   0.33961   0.0000000000
H          H       0.25946   0.44694   0.34805   0.0000000000
H          H       0.21628   0.50323  -0.29859   0.0000000000
H          H       0.18868   0.44712  -0.31081   0.0000000000
H          H       0.06737   0.83434   0.10369   0.0000000000
H          H       0.05038   0.77562   0.08511   0.0000000000
H          H       0.04714   0.88345  -0.37122   0.0000000000
H          H       0.07594   0.85614  -0.37519   0.0000000000
H          H       0.97784   0.92328  -0.03684   0.0000000000
H          H       0.26381   0.83043   0.19496   0.0000000000
H          H       0.27826   0.89298   0.21326   0.0000000000
H          H       0.16845   0.73496  -0.15727   0.0000000000
H          H       0.10977   0.71799  -0.19040   0.0000000000
H          H       0.16480   0.93155  -0.10655   0.0000000000
H          H       0.22722   0.94596  -0.06359   0.0000000000
H          H       0.11521   0.95225   0.34269   0.0000000000
H          H       0.14279   0.92374   0.36010   0.0000000000
H          H       0.07552   0.02081  -0.00681   0.0000000000
H          H       0.08023   0.74845  -0.04719   0.0000000000
H          H       0.25045   0.91869   0.07272   0.0000000000
C          C       0.02769   0.08045  -0.01394   0.0000000000
N          N       0.17717   0.30095  -0.01391   0.0000000000
C          C       0.15978   0.27137   0.02061   0.0000000000
C          C       0.17683   0.25800   0.06597   0.0000000000
C          C       0.20592   0.28023   0.05331   0.0000000000
C          C       0.10762   0.17612  -0.21349   0.0000000000
C          C       0.12288   0.20700  -0.21168   0.0000000000
C          C       0.05476   0.05430  -0.03098   0.0000000000
C          C       0.02790   0.02711  -0.02418   0.0000000000
C          C       0.30683   0.58610   0.03347   0.0000000000
N          N       0.15715   0.36556   0.03275   0.0000000000
C          C       0.12949   0.36055   0.08877   0.0000000000
C          C       0.17475   0.39511   0.06862   0.0000000000
C          C       0.15810   0.40845   0.15129   0.0000000000
C          C       0.12898   0.38621   0.16147   0.0000000000
C          C       0.22589   0.49057  -0.15931   0.0000000000
C          C       0.21057   0.45968  -0.16343   0.0000000000
O          O       0.30302   0.55789   0.04853   0.0000000000
C          C       0.27993   0.61242   0.00825   0.0000000000
C          C       0.30684   0.63959   0.02005   0.0000000000
C          C       0.28060   0.58613   0.01038   0.0000000000
C          C       0.23216   0.36057  -0.06308   0.0000000000
C          C       0.22150   0.39514  -0.03735   0.0000000000
C          C       0.25152   0.40852  -0.11765   0.0000000000
C          C       0.25838   0.38628  -0.13138   0.0000000000
C          C       0.26581   0.49049   0.19948   0.0000000000
C          C       0.25020   0.45959   0.20144   0.0000000000
C          C       0.33382   0.61235   0.03575   0.0000000000
C          C       0.33415   0.63955   0.02411   0.0000000000
C          C       0.05398   0.08051  -0.03042   0.0000000000
N          N       0.12482   0.30096   0.02666   0.0000000000
C          C       0.10196   0.30601   0.00920   0.0000000000
C          C       0.11261   0.27142  -0.01499   0.0000000000
C          C       0.08223   0.25815  -0.06292   0.0000000000
C          C       0.07538   0.28038  -0.04449   0.0000000000
C          C       0.06928   0.17574   0.18900   0.0000000000
C          C       0.08490   0.20663   0.19712   0.0000000000
O          O       0.07835   0.10869  -0.04227   0.0000000000
C          C       0.00075   0.05417  -0.01434   0.0000000000
C          C       0.23050   0.33326  -0.03767   0.0000000000
C          C       0.10384   0.33328   0.05815   0.0000000000
C          C       0.08073   0.16049  -0.01474   0.0000000000
B          B       0.06364   0.12624  -0.01955   0.0000000000
C          C       0.20581   0.41050   0.01666   0.0000000000
C          C       0.25358   0.50599   0.02058   0.0000000000
C          C       0.22242   0.44371   0.01841   0.0000000000
B          B       0.27076   0.54029   0.02151   0.0000000000
C          C       0.20505   0.30594   0.00000   0.0000000000
O          O       0.03138   0.10858   0.00000   0.0000000000
N          N       0.20951   0.36556   0.00000   0.0000000000
O          O       0.25616   0.55795   0.00000   0.0000000000
C          C       0.12849   0.25600   0.00000   0.0000000000
C          C       0.11187   0.22277   0.00000   0.0000000000
C          C       0.00079   0.02716  -0.02418   0.0000000000
H          H       0.25801   0.61223  -0.00286   0.0000000000
H          H       0.35534   0.61175   0.04691   0.0000000000
H          H       0.49695   0.78499   0.33961   0.0000000000
H          H       0.55306   0.81252   0.34805   0.0000000000
H          H       0.49678   0.71305  -0.29859   0.0000000000
H          H       0.55288   0.74156  -0.31081   0.0000000000
H          H       0.16566   0.23303   0.10369   0.0000000000
H          H       0.22438   0.27477   0.08511   0.0000000000
H          H       0.11655   0.16369  -0.37122   0.0000000000
H          H       0.14386   0.21979  -0.37519   0.0000000000
H          H       0.07672   0.05456  -0.03684   0.0000000000
H          H       0.16957   0.43337   0.19496   0.0000000000
H          H       0.10702   0.38528   0.21326   0.0000000000
H          H       0.26504   0.43349  -0.15727   0.0000000000
H          H       0.28201   0.39178  -0.19040   0.0000000000
H          H       0.06845   0.23325  -0.10655   0.0000000000
H          H       0.05404   0.28126  -0.06359   0.0000000000
H          H       0.04775   0.16296   0.34269   0.0000000000
H          H       0.07626   0.21905   0.36010   0.0000000000
H          H       0.97919   0.05471  -0.00681   0.0000000000
H          H       0.25155   0.33179  -0.04719   0.0000000000
H          H       0.08131   0.33176   0.07272   0.0000000000
H          H       0.17205   0.85238   0.06788   0.0000000000
H          H       0.16588   0.81424   0.06850   0.0000000000
H          H       0.68489   0.85192   0.95496   0.0000000000
H          H       0.65319   0.81398  -0.02728   0.0000000000
H          H       0.16079   0.34681  -0.02728   0.0000000000
H          H       0.16703   0.31511   0.95496   0.0000000000
