data_crystal
 
_cell_length_a    30.50000
_cell_length_b    3.49190
_cell_length_c    30.50000
_cell_angle_alpha 90.00000
_cell_angle_beta  120.00000
_cell_angle_gamma 90.00000
 
_symmetry_space_group_name_Hall 'P 1'
_symmetry_space_group_name_H-M  'P 1'
 
loop_
_symmetry_equiv_pos_as_xyz
 'x,y,z' 
 
loop_
_atom_site_label
_atom_site_type_symbol
_atom_site_fract_x
_atom_site_fract_y
_atom_site_fract_z
_atom_site_charge
O          O       0.58569   0.00000   0.33875   0.0000000000
N          N       0.64727   0.00000   0.43778   0.0000000000
C          C       0.62679   0.00000   0.33889   0.0000000000
C          C       0.68799   0.00000   0.43509   0.0000000000
C          C       0.62800   0.00000   0.46698   0.0000000000
C          C       0.64929   0.00000   0.51945   0.0000000000
C          C       0.61473   0.00000   0.53709   0.0000000000
C          C       0.56180   0.00000   0.50162   0.0000000000
C          C       0.54300   0.00000   0.44958   0.0000000000
C          C       0.57579   0.00000   0.43281   0.0000000000
C          C       0.67625   0.00000   0.38322   0.0000000000
H          H       0.72323   0.00000   0.46703   0.0000000000
H          H       0.68755   0.00000   0.54318   0.0000000000
H          H       0.62111   0.00000   0.40480   0.0000000000
H          H       0.55834   0.00000   0.39432   0.0000000000
H          H       0.62818   0.00000   0.57526   0.0000000000
H          H       0.50644   0.00000   0.42133   0.0000000000
O          O       0.75739   0.00000   0.41530   0.0000000000
N          N       0.79547   0.00000   0.35436   0.0000000000
C          C       0.71665   0.00000   0.37415   0.0000000000
C          C       0.75217   0.00000   0.31334   0.0000000000
C          C       0.84413   0.00000   0.37486   0.0000000000
C          C       0.87675   0.00000   0.35496   0.0000000000
C          C       0.92885   0.00000   0.39048   0.0000000000
C          C       0.94257   0.00000   0.44205   0.0000000000
C          C       0.91007   0.00000   0.46169   0.0000000000
C          C       0.86095   0.00000   0.42714   0.0000000000
C          C       0.71179   0.00000   0.32479   0.0000000000
H          H       0.74902   0.00000   0.27817   0.0000000000
H          H       0.86319   0.00000   0.31687   0.0000000000
H          H       0.78818   0.00000   0.38012   0.0000000000
H          H       0.83946   0.00000   0.44386   0.0000000000
H          H       0.95539   0.00000   0.37933   0.0000000000
H          H       0.91936   0.00000   0.49963   0.0000000000
O          O       0.66275   0.00000   0.24357   0.0000000000
N          N       0.56381   0.00000   0.20590   0.0000000000
C          C       0.66235   0.00000   0.28438   0.0000000000
C          C       0.56617   0.00000   0.24923   0.0000000000
C          C       0.53517   0.00000   0.15736   0.0000000000
C          C       0.48252   0.00000   0.12571   0.0000000000
C          C       0.46483   0.00000   0.07342   0.0000000000
C          C       0.50184   0.00000   0.05858   0.0000000000
C          C       0.55416   0.00000   0.09017   0.0000000000
C          C       0.56993   0.00000   0.13965   0.0000000000
C          C       0.61795   0.00000   0.28947   0.0000000000
H          H       0.53418   0.00000   0.25245   0.0000000000
H          H       0.45864   0.00000   0.14005   0.0000000000
H          H       0.59678   0.00000   0.21283   0.0000000000
H          H       0.60827   0.00000   0.16079   0.0000000000
H          H       0.42695   0.00000   0.04753   0.0000000000
H          H       0.58203   0.00000   0.07987   0.0000000000
C          C       0.52655   0.00000   0.51665   0.0000000000
C          C       0.98341   0.00000   0.47905   0.0000000000
C          C       0.49654   0.00000   0.01716   0.0000000000
O          O       0.41431   0.00000   0.66125   0.0000000000
N          N       0.35273   0.00000   0.56222   0.0000000000
C          C       0.37321   0.00000   0.66111   0.0000000000
C          C       0.31201   0.00000   0.56491   0.0000000000
C          C       0.37200   0.00000   0.53302   0.0000000000
C          C       0.35071   0.00000   0.48055   0.0000000000
C          C       0.38527   0.00000   0.46291   0.0000000000
C          C       0.43820   0.00000   0.49838   0.0000000000
C          C       0.45700   0.00000   0.55042   0.0000000000
C          C       0.42421   0.00000   0.56719   0.0000000000
C          C       0.32375   0.00000   0.61678   0.0000000000
H          H       0.27677   0.00000   0.53297   0.0000000000
H          H       0.31245   0.00000   0.45682   0.0000000000
H          H       0.37889   0.00000   0.59520   0.0000000000
H          H       0.44166   0.00000   0.60568   0.0000000000
H          H       0.37182   0.00000   0.42474   0.0000000000
H          H       0.49356   0.00000   0.57867   0.0000000000
O          O       0.24261   0.00000   0.58470   0.0000000000
N          N       0.20453   0.00000   0.64564   0.0000000000
C          C       0.28335   0.00000   0.62586   0.0000000000
C          C       0.24783   0.00000   0.68666   0.0000000000
C          C       0.15587   0.00000   0.62514   0.0000000000
C          C       0.12325   0.00000   0.64504   0.0000000000
C          C       0.07115   0.00000   0.60952   0.0000000000
C          C       0.05743   0.00000   0.55795   0.0000000000
C          C       0.08993   0.00000   0.53831   0.0000000000
C          C       0.13905   0.00000   0.57286   0.0000000000
C          C       0.28821   0.00000   0.67521   0.0000000000
H          H       0.25098   0.00000   0.72183   0.0000000000
H          H       0.13681   0.00000   0.68313   0.0000000000
H          H       0.21182   0.00000   0.61988   0.0000000000
H          H       0.16054   0.00000   0.55614   0.0000000000
H          H       0.04461   0.00000   0.62067   0.0000000000
H          H       0.08064   0.00000   0.50037   0.0000000000
O          O       0.33725   0.00000   0.75643   0.0000000000
N          N       0.43619   0.00000   0.79410   0.0000000000
C          C       0.33765   0.00000   0.71562   0.0000000000
C          C       0.43383   0.00000   0.75077   0.0000000000
C          C       0.46483   0.00000   0.84264   0.0000000000
C          C       0.51748   0.00000   0.87429   0.0000000000
C          C       0.53517   0.00000   0.92658   0.0000000000
C          C       0.49816   0.00000   0.94142   0.0000000000
C          C       0.44584   0.00000   0.90983   0.0000000000
C          C       0.43007   0.00000   0.86035   0.0000000000
C          C       0.38205   0.00000   0.71053   0.0000000000
H          H       0.46582   0.00000   0.74755   0.0000000000
H          H       0.54136   0.00000   0.85995   0.0000000000
H          H       0.40322   0.00000   0.78717   0.0000000000
H          H       0.39173   0.00000   0.83921   0.0000000000
H          H       0.57305   0.00000   0.95247   0.0000000000
H          H       0.41797   0.00000   0.92013   0.0000000000
C          C       0.47345   0.00000   0.48335   0.0000000000
C          C       0.01659   0.00000   0.52095   0.0000000000
C          C       0.50346   0.00000   0.98284   0.0000000000
H          H       0.54307   0.00000   0.55473   0.0000000000
H          H       0.45693   0.00000   0.44527   0.0000000000
