data_BF-COF-1
_audit_creation_date              0000-00-00
_audit_creation_method            'LanYouShi'
_symmetry_space_group_name_H-M    'P1'
_cell_length_a                    16.1180000
_cell_length_b                    16.1180000
_cell_length_c                    16.1466999
_cell_angle_alpha                 90.0000000
_cell_angle_beta                  90.0000000
_cell_angle_gamma                 90.0000000
loop_
_atom_site_label
_atom_site_type_symbol
_atom_site_fract_x
_atom_site_fract_y
_atom_site_fract_z
_atom_site_U_iso_or_equiv
_atom_site_adp_type
_atom_site_occupancy
        C1          C  0.3436823  0.6028575  0.3374313    0.00000       Uiso       1.00
        C2          N  0.4077177  0.6181505  0.3896539    0.00000       Uiso       1.00
         H          H  0.3141019  0.5468367  0.3413319    0.00000       Uiso       1.00
        C1          C  0.8360492  0.3370517  0.1006496    0.00000       Uiso       1.00
        C2          N  0.8895808  0.3991289  0.1191485    0.00000       Uiso       1.00
         H          H  0.8391970  0.3102219  0.0433038    0.00000       Uiso       1.00
        C1          C  0.8375527  0.5933533  0.8449792    0.00000       Uiso       1.00
        C2          N  0.8903467  0.6109651  0.9077834    0.00000       Uiso       1.00
         H          H  0.8398550  0.5357627  0.8184172    0.00000       Uiso       1.00
        C1          C  0.6563160  0.3971475  0.3374313    0.00000       Uiso       1.00
        C2          N  0.5922806  0.3818545  0.3896539    0.00000       Uiso       1.00
         H          H  0.6858964  0.4531684  0.3413319    0.00000       Uiso       1.00
        C1          C  0.1639491  0.6629532  0.1006496    0.00000       Uiso       1.00
        C2          N  0.1104175  0.6008760  0.1191485    0.00000       Uiso       1.00
         H          H  0.1608012  0.6897832  0.0433038    0.00000       Uiso       1.00
        C1          C  0.1624455  0.4066517  0.8449792    0.00000       Uiso       1.00
        C2          N  0.1096516  0.3890399  0.9077834    0.00000       Uiso       1.00
         H          H  0.1601433  0.4642422  0.8184172    0.00000       Uiso       1.00
        C1          C  0.6028541  0.6563194  0.6625831    0.00000       Uiso       1.00
        C2          N  0.6181471  0.5922840  0.6103604    0.00000       Uiso       1.00
         H          H  0.5468333  0.6858997  0.6586825    0.00000       Uiso       1.00
        C1          C  0.3370484  0.1639524  0.8993647    0.00000       Uiso       1.00
        C2          N  0.3991256  0.1104208  0.8808658    0.00000       Uiso       1.00
         H          H  0.3102185  0.1608046  0.9567105    0.00000       Uiso       1.00
        C1          C  0.5933499  0.1624489  0.1550351    0.00000       Uiso       1.00
        C2          N  0.6109617  0.1096550  0.0922309    0.00000       Uiso       1.00
         H          H  0.5357594  0.1601466  0.1815972    0.00000       Uiso       1.00
        C1          C  0.3971442  0.3436856  0.6625831    0.00000       Uiso       1.00
        C2          N  0.3818511  0.4077210  0.6103604    0.00000       Uiso       1.00
         H          H  0.4531650  0.3141053  0.6586825    0.00000       Uiso       1.00
        C1          C  0.6629499  0.8360526  0.8993647    0.00000       Uiso       1.00
        C2          N  0.6008728  0.8895842  0.8808658    0.00000       Uiso       1.00
         H          H  0.6897798  0.8392004  0.9567105    0.00000       Uiso       1.00
        C1          C  0.4066484  0.8375561  0.1550351    0.00000       Uiso       1.00
        C2          N  0.3890366  0.8903500  0.0922309    0.00000       Uiso       1.00
         H          H  0.4642389  0.8398584  0.1815972    0.00000       Uiso       1.00
        C1          C  0.6111053  0.4896152  0.5010251    0.00000       Uiso       1.00
        C2          C  0.9996146  0.6116661  0.0091843    0.00000       Uiso       1.00
        C3          C  0.3888930  0.5103898  0.5010251    0.00000       Uiso       1.00
        C4          C  0.0003837  0.3883389  0.0091843    0.00000       Uiso       1.00
        C5          C  0.4896118  0.3888963  0.4989892    0.00000       Uiso       1.00
        C6          C  0.6116627  0.0003870  0.9908301    0.00000       Uiso       1.00
        C7          C  0.5103865  0.6111086  0.4989892    0.00000       Uiso       1.00
        C8          C  0.3883356  0.9996180  0.9908301    0.00000       Uiso       1.00
        C9          C  0.4999992  0.0000030  0.1030521    0.00000       Uiso       1.00
       C10          C  0.4999992  0.0000030  0.8801743    0.00000       Uiso       1.00
       C11          C -0.0000004  0.5000025  0.8969623    0.00000       Uiso       1.00
       C12          C -0.0000004  0.5000025  0.1198401    0.00000       Uiso       1.00
       C13          C  0.5512281  0.4390799  0.4436310    0.00000       Uiso       1.00
       C14          C  0.9436836  0.5562475  0.9525938    0.00000       Uiso       1.00
       C15          C  0.9436056  0.4437211  0.0648789    0.00000       Uiso       1.00
       C16          C  0.4487702  0.5609251  0.4436310    0.00000       Uiso       1.00
       C17          C  0.0563147  0.4437575  0.9525938    0.00000       Uiso       1.00
       C18          C  0.0563927  0.5562839  0.0648789    0.00000       Uiso       1.00
       C19          C  0.4390765  0.4487735  0.5563834    0.00000       Uiso       1.00
       C20          C  0.5562441  0.0563180  0.0474206    0.00000       Uiso       1.00
       C21          C  0.4437177  0.0563961  0.9351355    0.00000       Uiso       1.00
       C22          C  0.5609217  0.5512314  0.5563834    0.00000       Uiso       1.00
       C23          C  0.4437542  0.9436870  0.0474206    0.00000       Uiso       1.00
       C24          C  0.5562806  0.9436089  0.9351355    0.00000       Uiso       1.00
        H1          H  0.4469543  0.3530083  0.4605169    0.00000       Uiso       1.00
        H2          H  0.5249956  0.3445776  0.5358483    0.00000       Uiso       1.00
        H3          H  0.9624178  0.4605113  0.8569291    0.00000       Uiso       1.00
        H4          H  0.9618149  0.5387934  0.1601917    0.00000       Uiso       1.00
        H5          H  0.3483379  0.9613935  0.9517412    0.00000       Uiso       1.00
        H6          H  0.6521847  0.9628238  0.0298688    0.00000       Uiso       1.00
        H7          H  0.5530440  0.6469967  0.4605169    0.00000       Uiso       1.00
        H8          H  0.4750027  0.6554274  0.5358483    0.00000       Uiso       1.00
        H9          H  0.0375805  0.5394937  0.8569291    0.00000       Uiso       1.00
       H10          H  0.0381835  0.4612116  0.1601917    0.00000       Uiso       1.00
       H11          H  0.6516603  0.0386115  0.9517412    0.00000       Uiso       1.00
       H12          H  0.3478136  0.0371812  0.0298688    0.00000       Uiso       1.00
       H13          H  0.3530049  0.5530474  0.5394974    0.00000       Uiso       1.00
       H14          H  0.3445743  0.4750060  0.4641661    0.00000       Uiso       1.00
       H15          H  0.4605079  0.0375838  0.1430853    0.00000       Uiso       1.00
       H16          H  0.5387900  0.0381868  0.8398226    0.00000       Uiso       1.00
       H17          H  0.9613901  0.6516637  0.0482732    0.00000       Uiso       1.00
       H18          H  0.9628204  0.3478170  0.9701455    0.00000       Uiso       1.00
       H19          H  0.6469933  0.4469576  0.5394974    0.00000       Uiso       1.00
       H20          H  0.6554240  0.5249990  0.4641661    0.00000       Uiso       1.00
       H21          H  0.5394904  0.9624212  0.1430853    0.00000       Uiso       1.00
       H22          H  0.4612082  0.9618182  0.8398226    0.00000       Uiso       1.00
       H23          H  0.0386082  0.3483413  0.0482732    0.00000       Uiso       1.00
       H24          H  0.0371778  0.6521880  0.9701455    0.00000       Uiso       1.00
       H25          H  0.5414986  0.5352569  0.3485429    0.00000       Uiso       1.00
       H26          H  0.8482371  0.5385672  0.0470395    0.00000       Uiso       1.00
       H27          H  0.8484023  0.4615747  0.9701065    0.00000       Uiso       1.00
       H28          H  0.4584997  0.4647481  0.3485429    0.00000       Uiso       1.00
       H29          H  0.1517612  0.4614377  0.0470395    0.00000       Uiso       1.00
       H30          H  0.1515960  0.5384303  0.9701065    0.00000       Uiso       1.00
       H31          H  0.5352535  0.4585030  0.6514714    0.00000       Uiso       1.00
       H32          H  0.5385639  0.1517645  0.9529749    0.00000       Uiso       1.00
       H33          H  0.4615713  0.1515993  0.0299078    0.00000       Uiso       1.00
       H34          H  0.4647448  0.5415020  0.6514714    0.00000       Uiso       1.00
       H35          H  0.4614344  0.8482405  0.9529749    0.00000       Uiso       1.00
       H36          H  0.5384269  0.8484057  0.0299078    0.00000       Uiso       1.00
       C25          C  0.7560775  0.7212651  0.8652855    0.00000       Uiso       1.00
       C26          C  0.3689483  0.7271013  0.2517357    0.00000       Uiso       1.00
       C27          C  0.3596372  0.2484771  0.7740315    0.00000       Uiso       1.00
       C28          C  0.2439208  0.2787399  0.8652855    0.00000       Uiso       1.00
       C29          C  0.6310501  0.2729037  0.2517357    0.00000       Uiso       1.00
       C30          C  0.6403611  0.7515279  0.7740315    0.00000       Uiso       1.00
       C31          C  0.7212617  0.2439241  0.1347289    0.00000       Uiso       1.00
       C32          C  0.7270980  0.6310534  0.7482786    0.00000       Uiso       1.00
       C33          C  0.2484737  0.6403644  0.2259828    0.00000       Uiso       1.00
       C34          C  0.2787365  0.7560809  0.1347289    0.00000       Uiso       1.00
       C35          C  0.2729003  0.3689516  0.7482786    0.00000       Uiso       1.00
       C36          C  0.7515246  0.3596405  0.2259828    0.00000       Uiso       1.00
       C37          C  0.7758136  0.6495176  0.8187544    0.00000       Uiso       1.00
       C38          C  0.2280718  0.6873900  0.1548905    0.00000       Uiso       1.00
       C39          C  0.6802801  0.3420244  0.2739887    0.00000       Uiso       1.00
       C40          C  0.2241847  0.3504874  0.8187544    0.00000       Uiso       1.00
       C41          C  0.7719265  0.3126150  0.1548905    0.00000       Uiso       1.00
       C42          C  0.3197182  0.6579806  0.2739887    0.00000       Uiso       1.00
       C43          C  0.6495142  0.2241880  0.1812599    0.00000       Uiso       1.00
       C44          C  0.6873866  0.7719299  0.8451239    0.00000       Uiso       1.00
       C45          C  0.3420210  0.3197216  0.7260257    0.00000       Uiso       1.00
       C46          C  0.3504841  0.7758170  0.1812599    0.00000       Uiso       1.00
       C47          C  0.3126117  0.2280752  0.8451239    0.00000       Uiso       1.00
       C48          C  0.6579772  0.6802834  0.7260257    0.00000       Uiso       1.00
       H37          H  0.7908964  0.7354141  0.9164231    0.00000       Uiso       1.00
       H38          H  0.4206129  0.7406102  0.2861103    0.00000       Uiso       1.00
       H39          H  0.4093744  0.2121252  0.7584940    0.00000       Uiso       1.00
       H40          H  0.2091019  0.2645909  0.9164231    0.00000       Uiso       1.00
       H41          H  0.5793854  0.2593948  0.2861103    0.00000       Uiso       1.00
       H42          H  0.5906239  0.7878798  0.7584940    0.00000       Uiso       1.00
       H43          H  0.7354107  0.2091052  0.0835912    0.00000       Uiso       1.00
       H44          H  0.7406068  0.5793887  0.7139041    0.00000       Uiso       1.00
       H45          H  0.2121219  0.5906273  0.2415204    0.00000       Uiso       1.00
       H46          H  0.2645876  0.7908998  0.0835912    0.00000       Uiso       1.00
       H47          H  0.2593914  0.4206162  0.7139041    0.00000       Uiso       1.00
       H48          H  0.7878764  0.4093778  0.2415204    0.00000       Uiso       1.00
       C32          C  0.8886750  0.5000149  0.0086444    0.00000       Uiso       1.00
       C32          C  0.1113233  0.4999901  0.0086444    0.00000       Uiso       1.00
       C32          C  0.5000116  0.1113267  0.9913701    0.00000       Uiso       1.00
       C32          C  0.4999867  0.8886783  0.9913701    0.00000       Uiso       1.00
       C32          C  0.4999992  0.5000025  0.3888464    0.00000       Uiso       1.00
       C32          C  0.4999992  0.5000025  0.6111679    0.00000       Uiso       1.00
