data_crystal
 
_cell_length_a    3.80070
_cell_length_b    37.75340
_cell_length_c    37.75340
_cell_angle_alpha 120.00000
_cell_angle_beta  90.00000
_cell_angle_gamma 90.00000
 
_symmetry_space_group_name_Hall 'P 1'
_symmetry_space_group_name_H-M  'P 1'
 
loop_
_symmetry_equiv_pos_as_xyz
 'x,y,z' 
 
loop_
_atom_site_label
_atom_site_type_symbol
_atom_site_fract_x
_atom_site_fract_y
_atom_site_fract_z
_atom_site_charge
C          C      -2.48342   0.47260  -0.18759   0.0000000000
C          C      -2.48342   0.44336  -0.17510   0.0000000000
C          C      -2.48342   0.38189  -0.14380   0.0000000000
C          C      -2.48342   0.35956  -0.12269   0.0000000000
C          C      -2.48342   0.48431   0.75410   0.0000000000
C          C      -2.48342   0.55252   0.67181   0.0000000000
C          C      -2.48342   0.57555   0.65140   0.0000000000
C          C      -2.48342   0.45646  -0.23086   0.0000000000
N          N      -2.48342   0.54882   0.73140   0.0000000000
C          C      -2.48342   0.31139  -0.01551   0.0000000000
C          C      -2.48342   0.28795  -0.05927   0.0000000000
C          C      -2.48342   0.15636  -0.12812   0.0000000000
C          C      -2.48342   0.24374  -0.08235   0.0000000000
O          O      -2.48342   0.46950   0.70881   0.0000000000
C          C      -2.48342   0.61439   0.33894   0.0000000000
C          C      -2.48342   0.04202  -0.17488   0.0000000000
C          C      -2.48342   0.08374  -0.14564   0.0000000000
C          C      -2.48342   0.17652  -0.08417   0.0000000000
C          C      -2.48342   0.21996  -0.06184   0.0000000000
C          C      -2.48342   0.97200   0.81341   0.0000000000
C          C      -2.48342   0.82150   0.74520   0.0000000000
C          C      -2.48342   0.77806   0.72217   0.0000000000
C          C      -2.48342   0.01489  -0.15873   0.0000000000
N          N      -2.48342   0.88478   0.74890   0.0000000000
C          C      -2.48342   0.37531  -0.01366   0.0000000000
C          C      -2.48342   0.35499   0.00977   0.0000000000
C          C      -2.48342   0.41773   0.14137   0.0000000000
C          C      -2.48342   0.37612   0.05399   0.0000000000
O          O      -2.48342   0.94152   0.82823   0.0000000000
C          C      -2.48342   0.42676   0.68333   0.0000000000
C          C      -2.48342   0.48531   0.25570   0.0000000000
C          C      -2.48342   0.47283   0.21398   0.0000000000
C          C      -2.48342   0.44152   0.12120   0.0000000000
C          C      -2.48342   0.42041   0.07776   0.0000000000
C          C      -2.48342   0.54362   0.32573   0.0000000000
C          C      -2.48342   0.62592   0.47622   0.0000000000
C          C      -2.48342   0.64632   0.51966   0.0000000000
C          C      -2.48342   0.52859   0.28283   0.0000000000
N          N      -2.48342   0.56632   0.41294   0.0000000000
C          C      -2.48342   0.31324  -0.07759   0.0000000000
C          C      -2.48342   0.35699  -0.05727   0.0000000000
C          C      -2.48342   0.42584  -0.12001   0.0000000000
C          C      -2.48342   0.38007  -0.07840   0.0000000000
O          O      -2.48342   0.58891   0.35620   0.0000000000
C          C      -2.48342   0.95878   0.87096   0.0000000000
C          C      -2.48342   0.52736   0.78308   0.0000000000
C          C      -2.48342   0.55659   0.77059   0.0000000000
C          C      -2.48342   0.61806   0.73929   0.0000000000
C          C      -2.48342   0.64040   0.71818   0.0000000000
C          C      -2.48342   0.51564  -0.15861   0.0000000000
C          C      -2.48342   0.44744  -0.07632   0.0000000000
C          C      -2.48342   0.42440  -0.05591   0.0000000000
C          C      -2.48342   0.54350   0.82635   0.0000000000
N          N      -2.48342   0.45113  -0.13591   0.0000000000
C          C      -2.48342   0.68857   0.61100   0.0000000000
C          C      -2.48342   0.71200   0.65476   0.0000000000
C          C      -2.48342   0.84360   0.72361   0.0000000000
C          C      -2.48342   0.75622   0.67784   0.0000000000
O          O      -2.48342   0.53046  -0.11332   0.0000000000
C          C      -2.48342   0.38556   0.25655   0.0000000000
C          C      -2.48342   0.95793   0.77037   0.0000000000
C          C      -2.48342   0.91621   0.74113   0.0000000000
C          C      -2.48342   0.82344   0.67966   0.0000000000
C          C      -2.48342   0.77999   0.65733   0.0000000000
C          C      -2.48342   0.02796  -0.21792   0.0000000000
C          C      -2.48342   0.17846  -0.14971   0.0000000000
C          C      -2.48342   0.22189  -0.12668   0.0000000000
C          C      -2.48342   0.98507   0.75422   0.0000000000
N          N      -2.48342   0.11517  -0.15341   0.0000000000
C          C      -2.48342   0.62464   0.60915   0.0000000000
C          C      -2.48342   0.64497   0.58572   0.0000000000
C          C      -2.48342   0.58222   0.45412   0.0000000000
C          C      -2.48342   0.62383   0.54150   0.0000000000
O          O      -2.48342   0.05843  -0.23274   0.0000000000
C          C      -2.48342   0.57320  -0.08784   0.0000000000
C          C      -2.48342   0.51465   0.33979   0.0000000000
C          C      -2.48342   0.52713   0.38151   0.0000000000
C          C      -2.48342   0.55844   0.47429   0.0000000000
C          C      -2.48342   0.57954   0.51773   0.0000000000
C          C      -2.48342   0.45633   0.26976   0.0000000000
C          C      -2.48342   0.37404   0.11927   0.0000000000
C          C      -2.48342   0.35364   0.07583   0.0000000000
C          C      -2.48342   0.47137   0.31266   0.0000000000
N          N      -2.48342   0.43363   0.18255   0.0000000000
C          C      -2.48342   0.68672   0.67308   0.0000000000
C          C      -2.48342   0.64297   0.65276   0.0000000000
C          C      -2.48342   0.57411   0.71550   0.0000000000
C          C      -2.48342   0.61988   0.67389   0.0000000000
O          O      -2.48342   0.41104   0.23929   0.0000000000
C          C      -2.48342   0.04118  -0.27547   0.0000000000
H          H      -2.48342   0.40940  -0.19891   0.0000000000
H          H      -2.48342   0.36592  -0.17862   0.0000000000
H          H      -2.48342   0.32470  -0.14061   0.0000000000
H          H      -2.48342   0.51765   0.65417   0.0000000000
H          H      -2.48342   0.55919   0.61656   0.0000000000
H          H      -2.48342   0.42196  -0.25249   0.0000000000
H          H      -2.48342   0.29520   0.00314   0.0000000000
H          H      -2.76284   0.62536   0.33891   0.0000000000
H          H      -2.38140   0.59658   0.30620   0.0000000000
H          H      -2.30602   0.64190   0.35773   0.0000000000
H          H      -2.48342   0.09391  -0.11167   0.0000000000
H          H      -2.48342   0.15767  -0.06819   0.0000000000
H          H      -2.48342   0.23690  -0.02697   0.0000000000
H          H      -2.48342   0.83873   0.78007   0.0000000000
H          H      -2.48342   0.75958   0.73853   0.0000000000
H          H      -2.48342   0.02776  -0.12424   0.0000000000
H          H      -2.48342   0.41015   0.00252   0.0000000000
H          H      -2.74236   0.41375   0.68708   0.0000000000
H          H      -2.25551   0.41306   0.69212   0.0000000000
H          H      -2.45238   0.41881   0.65012   0.0000000000
H          H      -2.48342   0.49663   0.20382   0.0000000000
H          H      -2.48342   0.47635   0.14005   0.0000000000
H          H      -2.48342   0.43833   0.06082   0.0000000000
H          H      -2.48342   0.64355   0.45899   0.0000000000
H          H      -2.48342   0.68116   0.53814   0.0000000000
H          H      -2.48342   0.55022   0.26997   0.0000000000
H          H      -2.48342   0.29458  -0.11243   0.0000000000
H          H      -2.39832   0.93473   0.87905   0.0000000000
H          H      -2.75952   0.96995   0.88330   0.0000000000
H          H      -2.29241   0.98565   0.88519   0.0000000000
H          H      -2.48342   0.59056   0.79440   0.0000000000
H          H      -2.48342   0.63404   0.77411   0.0000000000
H          H      -2.48342   0.67526   0.73610   0.0000000000
H          H      -2.48342   0.48230  -0.05868   0.0000000000
H          H      -2.48342   0.44077  -0.02107   0.0000000000
H          H      -2.48342   0.57800   0.84798   0.0000000000
H          H      -2.48342   0.70475   0.59235   0.0000000000
H          H      -2.38140   0.35398   0.23313   0.0000000000
H          H      -2.76284   0.38275   0.26585   0.0000000000
H          H      -2.30602   0.39930   0.28466   0.0000000000
H          H      -2.48342   0.90605   0.70716   0.0000000000
H          H      -2.48342   0.84229   0.66368   0.0000000000
H          H      -2.48342   0.76305   0.62246   0.0000000000
H          H      -2.48342   0.16123  -0.18458   0.0000000000
H          H      -2.48342   0.24037  -0.14305   0.0000000000
H          H      -2.48342   0.97220   0.71973   0.0000000000
H          H      -2.48342   0.58981   0.59297   0.0000000000
H          H      -2.25551   0.58260  -0.06527   0.0000000000
H          H      -2.74236   0.58329  -0.07031   0.0000000000
H          H      -2.45238   0.58835  -0.10727   0.0000000000
H          H      -2.48342   0.50333   0.39167   0.0000000000
H          H      -2.48342   0.52361   0.45544   0.0000000000
H          H      -2.48342   0.56162   0.53467   0.0000000000
H          H      -2.48342   0.35640   0.13650   0.0000000000
H          H      -2.48342   0.31879   0.05735   0.0000000000
H          H      -2.48342   0.44974   0.32552   0.0000000000
H          H      -2.48342   0.70537   0.70792   0.0000000000
H          H      -2.75952   0.04302  -0.28624   0.0000000000
H          H      -2.39832   0.00780  -0.29049   0.0000000000
H          H      -2.29241   0.05871  -0.28435   0.0000000000
