data_TPB-DMTP-COF
_audit_creation_date              0000-00-00
_audit_creation_method            'LanYouShi'
_symmetry_space_group_name_H-M    'P1'
_cell_length_a                    3.8006999
_cell_length_b                    37.7533989
_cell_length_c                    37.7533989
_cell_angle_alpha                 120.0000000
_cell_angle_beta                  90.0000000
_cell_angle_gamma                 90.0000000
loop_
_atom_site_label
_atom_site_type_symbol
_atom_site_fract_x
_atom_site_fract_y
_atom_site_fract_z
_atom_site_U_iso_or_equiv
_atom_site_adp_type
_atom_site_occupancy
        C1          C -2.4834192  0.4725989 -0.1875860    0.00000       Uiso       1.00
        C2          C -2.4834192  0.4433630 -0.1751037    0.00000       Uiso       1.00
        C3          C -2.4834192  0.3818942 -0.1437969    0.00000       Uiso       1.00
        C4          C -2.4834192  0.3595579 -0.1226881    0.00000       Uiso       1.00
        C5          C -2.4834192  0.4843125  0.7540995    0.00000       Uiso       1.00
        C6          C -2.4834192  0.5525177  0.6718057    0.00000       Uiso       1.00
        C7          C -2.4834192  0.5755535  0.6514038    0.00000       Uiso       1.00
        C8          C -2.4834192  0.4564565 -0.2308639    0.00000       Uiso       1.00
        N1          N -2.4834192  0.5488239  0.7313988    0.00000       Uiso       1.00
        C9          C -2.4834192  0.3113853 -0.0155141    0.00000       Uiso       1.00
       C10          C -2.4834192  0.2879548 -0.0592659    0.00000       Uiso       1.00
       C11          C -2.4834192  0.1563560 -0.1281210    0.00000       Uiso       1.00
       C12          C -2.4834192  0.2437350 -0.0823510    0.00000       Uiso       1.00
        O1          O -2.4834192  0.4694966  0.7088091    0.00000       Uiso       1.00
       C13          C -2.4834192  0.6143935  0.3389424    0.00000       Uiso       1.00
       C14          C -2.4834192  0.0420247 -0.1748765    0.00000       Uiso       1.00
       C15          C -2.4834192  0.0837428 -0.1456407    0.00000       Uiso       1.00
       C16          C -2.4834192  0.1765184 -0.0841719    0.00000       Uiso       1.00
       C17          C -2.4834192  0.2199636 -0.0618355    0.00000       Uiso       1.00
       C18          C -2.4834192  0.9719965  0.8134093    0.00000       Uiso       1.00
       C19          C -2.4834192  0.8214976  0.7452042    0.00000       Uiso       1.00
       C20          C -2.4834192  0.7780598  0.7221683    0.00000       Uiso       1.00
       C21          C -2.4834192  0.0148892 -0.1587341    0.00000       Uiso       1.00
        N2          N -2.4834192  0.8847845  0.7488979    0.00000       Uiso       1.00
       C22          C -2.4834192  0.3753101 -0.0136630    0.00000       Uiso       1.00
       C23          C -2.4834192  0.3549888  0.0097675    0.00000       Uiso       1.00
       C24          C -2.4834192  0.4177326  0.1413663    0.00000       Uiso       1.00
       C25          C -2.4834192  0.3761235  0.0539873    0.00000       Uiso       1.00
        O2          O -2.4834192  0.9415221  0.8282252    0.00000       Uiso       1.00
       C26          C -2.4834192  0.4267585  0.6833283    0.00000       Uiso       1.00
       C27          C -2.4834192  0.4853083  0.2556977    0.00000       Uiso       1.00
       C28          C -2.4834192  0.4728260  0.2139795    0.00000       Uiso       1.00
       C29          C -2.4834192  0.4415192  0.1212039    0.00000       Uiso       1.00
       C30          C -2.4834192  0.4204104  0.0777588    0.00000       Uiso       1.00
       C31          C -2.4834192  0.5436223  0.3257253    0.00000       Uiso       1.00
       C32          C -2.4834192  0.6259161  0.4762242    0.00000       Uiso       1.00
       C33          C -2.4834192  0.6463180  0.5196620    0.00000       Uiso       1.00
       C34          C -2.4834192  0.5285862  0.2828332    0.00000       Uiso       1.00
        N3          N -2.4834192  0.5663230  0.4129373    0.00000       Uiso       1.00
       C35          C -2.4834192  0.3132365 -0.0775878    0.00000       Uiso       1.00
       C36          C -2.4834192  0.3569883 -0.0572665    0.00000       Uiso       1.00
       C37          C -2.4834192  0.4258433 -0.1200102    0.00000       Uiso       1.00
       C38          C -2.4834192  0.3800733 -0.0784012    0.00000       Uiso       1.00
        O3          O -2.4834192  0.5889127  0.3561997    0.00000       Uiso       1.00
       C39          C -2.4834192  0.9587793  0.8709633    0.00000       Uiso       1.00
       C40          C -2.4834192  0.5273556  0.7830757    0.00000       Uiso       1.00
       C41          C -2.4834192  0.5565914  0.7705934    0.00000       Uiso       1.00
       C42          C -2.4834192  0.6180602  0.7392867    0.00000       Uiso       1.00
       C43          C -2.4834192  0.6403965  0.7181779    0.00000       Uiso       1.00
       C44          C -2.4834192  0.5156419 -0.1586098    0.00000       Uiso       1.00
       C45          C -2.4834192  0.4474368 -0.0763160    0.00000       Uiso       1.00
       C46          C -2.4834192  0.4244008 -0.0559141    0.00000       Uiso       1.00
       C47          C -2.4834192  0.5434979  0.8263536    0.00000       Uiso       1.00
        N4          N -2.4834192  0.4511305 -0.1359091    0.00000       Uiso       1.00
       C48          C -2.4834192  0.6885691  0.6110038    0.00000       Uiso       1.00
       C49          C -2.4834192  0.7119997  0.6547557    0.00000       Uiso       1.00
       C50          C -2.4834192  0.8435984  0.7236107    0.00000       Uiso       1.00
       C51          C -2.4834192  0.7562194  0.6778407    0.00000       Uiso       1.00
        O4          O -2.4834192  0.5304579 -0.1133194    0.00000       Uiso       1.00
       C52          C -2.4834192  0.3855609  0.2565473    0.00000       Uiso       1.00
       C53          C -2.4834192  0.9579297  0.7703663    0.00000       Uiso       1.00
       C54          C -2.4834192  0.9162116  0.7411304    0.00000       Uiso       1.00
       C55          C -2.4834192  0.8234360  0.6796616    0.00000       Uiso       1.00
       C56          C -2.4834192  0.7799909  0.6573253    0.00000       Uiso       1.00
       C57          C -2.4834192  0.0279579 -0.2179195    0.00000       Uiso       1.00
       C58          C -2.4834192  0.1784568 -0.1497144    0.00000       Uiso       1.00
       C59          C -2.4834192  0.2218945 -0.1266785    0.00000       Uiso       1.00
       C60          C -2.4834192  0.9850652  0.7542239    0.00000       Uiso       1.00
        N5          N -2.4834192  0.1151699 -0.1534082    0.00000       Uiso       1.00
       C61          C -2.4834192  0.6246443  0.6091527    0.00000       Uiso       1.00
       C62          C -2.4834192  0.6449656  0.5857222    0.00000       Uiso       1.00
       C63          C -2.4834192  0.5822219  0.4541234    0.00000       Uiso       1.00
       C64          C -2.4834192  0.6238309  0.5415024    0.00000       Uiso       1.00
        O5          O -2.4834192  0.0584323 -0.2327355    0.00000       Uiso       1.00
       C65          C -2.4834192  0.5731959 -0.0878385    0.00000       Uiso       1.00
       C66          C -2.4834192  0.5146461  0.3397921    0.00000       Uiso       1.00
       C67          C -2.4834192  0.5271284  0.3815102    0.00000       Uiso       1.00
       C68          C -2.4834192  0.5584352  0.4742858    0.00000       Uiso       1.00
       C69          C -2.4834192  0.5795439  0.5177310    0.00000       Uiso       1.00
       C70          C -2.4834192  0.4563321  0.2697645    0.00000       Uiso       1.00
       C71          C -2.4834192  0.3740383  0.1192655    0.00000       Uiso       1.00
       C72          C -2.4834192  0.3536365  0.0758278    0.00000       Uiso       1.00
       C73          C -2.4834192  0.4713682  0.3126566    0.00000       Uiso       1.00
        N6          N -2.4834192  0.4336314  0.1825524    0.00000       Uiso       1.00
       C74          C -2.4834192  0.6867179  0.6730775    0.00000       Uiso       1.00
       C75          C -2.4834192  0.6429662  0.6527563    0.00000       Uiso       1.00
       C76          C -2.4834192  0.5741111  0.7154999    0.00000       Uiso       1.00
       C77          C -2.4834192  0.6198811  0.6738909    0.00000       Uiso       1.00
        O6          O -2.4834192  0.4110417  0.2392900    0.00000       Uiso       1.00
       C78          C -2.4834192  0.0411751 -0.2754736    0.00000       Uiso       1.00
        H1          H -2.4834192  0.4093968 -0.1989071    0.00000       Uiso       1.00
        H2          H -2.4834192  0.3659163 -0.1786247    0.00000       Uiso       1.00
        H3          H -2.4834192  0.3246952 -0.1406119    0.00000       Uiso       1.00
        H4          H -2.4834192  0.5176511  0.6541700    0.00000       Uiso       1.00
        H5          H -2.4834192  0.5591871  0.6165579    0.00000       Uiso       1.00
        H6          H -2.4834192  0.4219582 -0.2524945    0.00000       Uiso       1.00
        H7          H -2.4834192  0.2952043  0.0031428    0.00000       Uiso       1.00
        H8          H -2.7628412  0.6253555  0.3389117    0.00000       Uiso       1.00
        H9          H -2.3813956  0.5965837  0.3061961    0.00000       Uiso       1.00
       H10          H -2.3060205  0.6419024  0.3577266    0.00000       Uiso       1.00
       H11          H -2.4834192  0.0939057 -0.1116744    0.00000       Uiso       1.00
       H12          H -2.4834192  0.1576685 -0.0681940    0.00000       Uiso       1.00
       H13          H -2.4834192  0.2369024 -0.0269729    0.00000       Uiso       1.00
       H14          H -2.4834192  0.8387285  0.7800707    0.00000       Uiso       1.00
       H15          H -2.4834192  0.7595804  0.7385347    0.00000       Uiso       1.00
       H16          H -2.4834192  0.0277568 -0.1242359    0.00000       Uiso       1.00
       H17          H -2.4834192  0.4101481  0.0025181    0.00000       Uiso       1.00
       H18          H -2.7423613  0.4137482  0.6870846    0.00000       Uiso       1.00
       H19          H -2.2555122  0.4130583  0.6921181    0.00000       Uiso       1.00
       H20          H -2.4523838  0.4188148  0.6501211    0.00000       Uiso       1.00
       H21          H -2.4834192  0.4966294  0.2038166    0.00000       Uiso       1.00
       H22          H -2.4834192  0.4763471  0.1400538    0.00000       Uiso       1.00
       H23          H -2.4834192  0.4383343  0.0608200    0.00000       Uiso       1.00
       H24          H -2.4834192  0.6435517  0.4589933    0.00000       Uiso       1.00
       H25          H -2.4834192  0.6811638  0.5381414    0.00000       Uiso       1.00
       H26          H -2.4834192  0.5502169  0.2699655    0.00000       Uiso       1.00
       H27          H -2.4834192  0.2945796 -0.1124257    0.00000       Uiso       1.00
       H28          H -2.3983245  0.9347295  0.8790533    0.00000       Uiso       1.00
       H29          H -2.7595196  0.9699543  0.8832995    0.00000       Uiso       1.00
       H30          H -2.2924132  0.9856473  0.8851913    0.00000       Uiso       1.00
       H31          H -2.4834192  0.5905576  0.7943968    0.00000       Uiso       1.00
       H32          H -2.4834192  0.6340381  0.7741145    0.00000       Uiso       1.00
       H33          H -2.4834192  0.6752592  0.7361017    0.00000       Uiso       1.00
       H34          H -2.4834192  0.4823033 -0.0586803    0.00000       Uiso       1.00
       H35          H -2.4834192  0.4407673 -0.0210682    0.00000       Uiso       1.00
       H36          H -2.4834192  0.5779962  0.8479842    0.00000       Uiso       1.00
       H37          H -2.4834192  0.7047502  0.5923470    0.00000       Uiso       1.00
       H38          H -2.3813956  0.3539771  0.2331296    0.00000       Uiso       1.00
       H39          H -2.7628412  0.3827488  0.2658451    0.00000       Uiso       1.00
       H40          H -2.3060205  0.3992957  0.2846601    0.00000       Uiso       1.00
       H41          H -2.4834192  0.9060487  0.7071642    0.00000       Uiso       1.00
       H42          H -2.4834192  0.8422859  0.6636837    0.00000       Uiso       1.00
       H43          H -2.4834192  0.7630520  0.6224626    0.00000       Uiso       1.00
       H44          H -2.4834192  0.1612259 -0.1845809    0.00000       Uiso       1.00
       H45          H -2.4834192  0.2403740 -0.1430450    0.00000       Uiso       1.00
       H46          H -2.4834192  0.9721976  0.7197255    0.00000       Uiso       1.00
       H47          H -2.4834192  0.5898063  0.5929716    0.00000       Uiso       1.00
       H48          H -2.2555122  0.5825985 -0.0652747    0.00000       Uiso       1.00
       H49          H -2.7423613  0.5832884 -0.0703082    0.00000       Uiso       1.00
       H50          H -2.4523838  0.5883550 -0.1072717    0.00000       Uiso       1.00
       H51          H -2.4834192  0.5033250  0.3916731    0.00000       Uiso       1.00
       H52          H -2.4834192  0.5236074  0.4554359    0.00000       Uiso       1.00
       H53          H -2.4834192  0.5616201  0.5346698    0.00000       Uiso       1.00
       H54          H -2.4834192  0.3564027  0.1364964    0.00000       Uiso       1.00
       H55          H -2.4834192  0.3187905  0.0573483    0.00000       Uiso       1.00
       H56          H -2.4834192  0.4497375  0.3255242    0.00000       Uiso       1.00
       H57          H -2.4834192  0.7053748  0.7079154    0.00000       Uiso       1.00
       H58          H -2.7595196  0.0430214 -0.2862401    0.00000       Uiso       1.00
       H59          H -2.3983245  0.0077965 -0.2904863    0.00000       Uiso       1.00
       H60          H -2.2924132  0.0587144 -0.2843484    0.00000       Uiso       1.00
