data_TPB-TP-COF
_audit_creation_date              0000-00-00
_audit_creation_method            'LanYouShi'
_symmetry_space_group_name_H-M    'P1'
_cell_length_a                    37.4664993
_cell_length_b                    37.4664993
_cell_length_c                    3.6333001
_cell_angle_alpha                 90.0000000
_cell_angle_beta                  90.0000000
_cell_angle_gamma                 120.0000000
loop_
_atom_site_label
_atom_site_type_symbol
_atom_site_fract_x
_atom_site_fract_y
_atom_site_fract_z
_atom_site_U_iso_or_equiv
_atom_site_adp_type
_atom_site_occupancy
        C1          C  0.8870842  0.4736401  0.5000000    0.00000       Uiso       1.00
        C1          C  0.5263599  0.4134440  0.5000000    0.00000       Uiso       1.00
        C1          C  0.5865560  0.1129158  0.5000000    0.00000       Uiso       1.00
        C1          C  0.1129158  0.5263599  0.5000000    0.00000       Uiso       1.00
        C1          C  0.4736401  0.5865560  0.5000000    0.00000       Uiso       1.00
        C1          C  0.4134441  0.8870842  0.5000000    0.00000       Uiso       1.00
        N1          N  0.9145747  0.4602703  0.5000000    0.00000       Uiso       1.00
        N1          N  0.5397298  0.4543045  0.5000000    0.00000       Uiso       1.00
        N1          N  0.5456955  0.0854253  0.5000000    0.00000       Uiso       1.00
        N1          N  0.0854252  0.5397298  0.5000000    0.00000       Uiso       1.00
        N1          N  0.4602703  0.5456955  0.5000000    0.00000       Uiso       1.00
        N1          N  0.4543045  0.9145748  0.5000000    0.00000       Uiso       1.00
        C2          C  0.9562870  0.4810303  0.5000000    0.00000       Uiso       1.00
        C3          C  0.9755319  0.4569138  0.5000000    0.00000       Uiso       1.00
        H1          H  0.8974606  0.5045944  0.5000000    0.00000       Uiso       1.00
        H2          H  0.9581535  0.4254118  0.5000000    0.00000       Uiso       1.00
        C2          C  0.5189697  0.4752568  0.5000000    0.00000       Uiso       1.00
        C3          C  0.5430862  0.5186181  0.5000000    0.00000       Uiso       1.00
        C4          C  0.5244366  0.5431728  0.5000000    0.00000       Uiso       1.00
        H1          H  0.4954056  0.3928662  0.5000000    0.00000       Uiso       1.00
        H2          H  0.5745882  0.5327417  0.5000000    0.00000       Uiso       1.00
        H3          H  0.5429453  0.5744548  0.5000000    0.00000       Uiso       1.00
        C2          C  0.5247433  0.0437130  0.5000000    0.00000       Uiso       1.00
        C3          C  0.4813820  0.0244681  0.5000000    0.00000       Uiso       1.00
        H1          H  0.6071338  0.1025394  0.5000000    0.00000       Uiso       1.00
        H2          H  0.4672582  0.0418465  0.5000000    0.00000       Uiso       1.00
        C2          C  0.0437130  0.5189697  0.5000000    0.00000       Uiso       1.00
        C3          C  0.0244681  0.5430862  0.5000000    0.00000       Uiso       1.00
        H1          H  0.1025394  0.4954056  0.5000000    0.00000       Uiso       1.00
        H2          H  0.0418465  0.5745882  0.5000000    0.00000       Uiso       1.00
        C2          C  0.4810303  0.5247433  0.5000000    0.00000       Uiso       1.00
        C3          C  0.4569138  0.4813819  0.5000000    0.00000       Uiso       1.00
        C4          C  0.4755635  0.4568273  0.5000000    0.00000       Uiso       1.00
        H1          H  0.5045944  0.6071338  0.5000000    0.00000       Uiso       1.00
        H2          H  0.4254118  0.4672583  0.5000000    0.00000       Uiso       1.00
        H3          H  0.4570548  0.4255452  0.5000000    0.00000       Uiso       1.00
        C2          C  0.4752567  0.9562871  0.5000000    0.00000       Uiso       1.00
        C3          C  0.5186181  0.9755319  0.5000000    0.00000       Uiso       1.00
        H1          H  0.3928662  0.8974606  0.5000000    0.00000       Uiso       1.00
        H2          H  0.5327418  0.9581535  0.5000000    0.00000       Uiso       1.00
        C4          C  0.0187362  0.4755635  0.5000000    0.00000       Uiso       1.00
        H3          H  0.0315096  0.4570548  0.5000000    0.00000       Uiso       1.00
        C4          C  0.4568273  0.9812638  0.5000000    0.00000       Uiso       1.00
        H3          H  0.4255452  0.9684904  0.5000000    0.00000       Uiso       1.00
        C4          C  0.9812638  0.5244365  0.5000000    0.00000       Uiso       1.00
        H3          H  0.9684904  0.5429453  0.5000000    0.00000       Uiso       1.00
        C4          C  0.5431728  0.0187362  0.5000000    0.00000       Uiso       1.00
        H3          H  0.5744548  0.0315096  0.5000000    0.00000       Uiso       1.00
       C25          C  0.1724136  0.5972171  0.5000000    0.00000       Uiso       1.00
       C26          C  0.2152994  0.6241633  0.5000000    0.00000       Uiso       1.00
       C25          C  0.4027829  0.5751966  0.5000000    0.00000       Uiso       1.00
       C26          C  0.3758368  0.5911362  0.5000000    0.00000       Uiso       1.00
       C25          C  0.4248035  0.8275864  0.5000000    0.00000       Uiso       1.00
       C26          C  0.4088639  0.7847007  0.5000000    0.00000       Uiso       1.00
       C25          C  0.8275864  0.4027829  0.5000000    0.00000       Uiso       1.00
       C26          C  0.7847007  0.3758368  0.5000000    0.00000       Uiso       1.00
       C25          C  0.5972171  0.4248035  0.5000000    0.00000       Uiso       1.00
       C26          C  0.6241632  0.4088639  0.5000000    0.00000       Uiso       1.00
       C25          C  0.5751966  0.1724137  0.5000000    0.00000       Uiso       1.00
       C26          C  0.5911362  0.2152994  0.5000000    0.00000       Uiso       1.00
       H19          H  0.1535001  0.6095784  0.5000000    0.00000       Uiso       1.00
       H20          H  0.2238475  0.6544468  0.5000000    0.00000       Uiso       1.00
       H19          H  0.3904216  0.5439216  0.5000000    0.00000       Uiso       1.00
       H20          H  0.3455531  0.5694006  0.5000000    0.00000       Uiso       1.00
       H19          H  0.4560784  0.8465000  0.5000000    0.00000       Uiso       1.00
       H20          H  0.4305994  0.7761526  0.5000000    0.00000       Uiso       1.00
       H19          H  0.8464999  0.3904216  0.5000000    0.00000       Uiso       1.00
       H20          H  0.7761526  0.3455531  0.5000000    0.00000       Uiso       1.00
       H19          H  0.6095784  0.4560784  0.5000000    0.00000       Uiso       1.00
       H20          H  0.6544469  0.4305994  0.5000000    0.00000       Uiso       1.00
       H19          H  0.5439217  0.1535001  0.5000000    0.00000       Uiso       1.00
       H20          H  0.5694006  0.2238475  0.5000000    0.00000       Uiso       1.00
       C31          C  0.3557203  0.8163894  0.5000000    0.00000       Uiso       1.00
       C32          C  0.3401698  0.7735397  0.5000000    0.00000       Uiso       1.00
       C31          C  0.1836106  0.5393308  0.5000000    0.00000       Uiso       1.00
       C32          C  0.2264604  0.5666301  0.5000000    0.00000       Uiso       1.00
       C31          C  0.4606692  0.6442798  0.5000000    0.00000       Uiso       1.00
       C32          C  0.4333699  0.6598303  0.5000000    0.00000       Uiso       1.00
       C31          C  0.6442797  0.1836106  0.5000000    0.00000       Uiso       1.00
       C32          C  0.6598302  0.2264604  0.5000000    0.00000       Uiso       1.00
       C31          C  0.8163894  0.4606692  0.5000000    0.00000       Uiso       1.00
       C32          C  0.7735397  0.4333699  0.5000000    0.00000       Uiso       1.00
       C31          C  0.5393308  0.3557203  0.5000000    0.00000       Uiso       1.00
       C32          C  0.5666301  0.3401698  0.5000000    0.00000       Uiso       1.00
       H25          H  0.3353654  0.8270559  0.5000000    0.00000       Uiso       1.00
       H26          H  0.3089959  0.7563553  0.5000000    0.00000       Uiso       1.00
       H25          H  0.1729442  0.5083096  0.5000000    0.00000       Uiso       1.00
       H26          H  0.2436447  0.5526407  0.5000000    0.00000       Uiso       1.00
       H25          H  0.4916904  0.6646346  0.5000000    0.00000       Uiso       1.00
       H26          H  0.4473593  0.6910040  0.5000000    0.00000       Uiso       1.00
       H25          H  0.6646346  0.1729442  0.5000000    0.00000       Uiso       1.00
       H26          H  0.6910040  0.2436447  0.5000000    0.00000       Uiso       1.00
       H25          H  0.8270559  0.4916904  0.5000000    0.00000       Uiso       1.00
       H26          H  0.7563553  0.4473593  0.5000000    0.00000       Uiso       1.00
       H25          H  0.5083096  0.3353654  0.5000000    0.00000       Uiso       1.00
       H26          H  0.5526407  0.3089960  0.5000000    0.00000       Uiso       1.00
       C37          C  0.3496462  0.7112138  0.5000000    0.00000       Uiso       1.00
       C38          C  0.3984417  0.8442966  0.5000000    0.00000       Uiso       1.00
       C39          C  0.3657843  0.7553208  0.5000000    0.00000       Uiso       1.00
       C46          C  0.3752126  0.6932054  0.5000000    0.00000       Uiso       1.00
       C37          C  0.2887863  0.6384324  0.5000000    0.00000       Uiso       1.00
       C38          C  0.1557034  0.5541452  0.5000000    0.00000       Uiso       1.00
       C39          C  0.2446792  0.6104634  0.5000000    0.00000       Uiso       1.00
       C46          C  0.3067946  0.6820071  0.5000000    0.00000       Uiso       1.00
       C37          C  0.3615676  0.6503539  0.5000000    0.00000       Uiso       1.00
       C38          C  0.4458549  0.6015583  0.5000000    0.00000       Uiso       1.00
       C39          C  0.3895366  0.6342157  0.5000000    0.00000       Uiso       1.00
       C46          C  0.3179929  0.6247874  0.5000000    0.00000       Uiso       1.00
       C37          C  0.6503538  0.2887863  0.5000000    0.00000       Uiso       1.00
       C38          C  0.6015583  0.1557034  0.5000000    0.00000       Uiso       1.00
       C39          C  0.6342157  0.2446792  0.5000000    0.00000       Uiso       1.00
       C46          C  0.6247874  0.3067946  0.5000000    0.00000       Uiso       1.00
       C37          C  0.7112138  0.3615676  0.5000000    0.00000       Uiso       1.00
       C38          C  0.8442966  0.4458549  0.5000000    0.00000       Uiso       1.00
       C39          C  0.7553208  0.3895366  0.5000000    0.00000       Uiso       1.00
       C46          C  0.6932054  0.3179929  0.5000000    0.00000       Uiso       1.00
       C37          C  0.6384324  0.3496462  0.5000000    0.00000       Uiso       1.00
       C38          C  0.5541452  0.3984417  0.5000000    0.00000       Uiso       1.00
       C39          C  0.6104634  0.3657843  0.5000000    0.00000       Uiso       1.00
       C46          C  0.6820071  0.3752126  0.5000000    0.00000       Uiso       1.00
       H31          H  0.2875367  0.6931707  0.5000000    0.00000       Uiso       1.00
       H31          H  0.3068293  0.5943660  0.5000000    0.00000       Uiso       1.00
       H31          H  0.4056340  0.7124634  0.5000000    0.00000       Uiso       1.00
       H31          H  0.7124633  0.3068293  0.5000000    0.00000       Uiso       1.00
       H31          H  0.6931707  0.4056340  0.5000000    0.00000       Uiso       1.00
       H31          H  0.5943660  0.2875367  0.5000000    0.00000       Uiso       1.00
