data_crystal
 
_cell_length_a    31.54000
_cell_length_b    31.54000
_cell_length_c    3.49000
_cell_angle_alpha 90.00000
_cell_angle_beta  90.00000
_cell_angle_gamma 120.00000
 
_symmetry_space_group_name_Hall 'P 1'
_symmetry_space_group_name_H-M  'P 1'
 
loop_
_symmetry_equiv_pos_as_xyz
 'x,y,z' 
 
loop_
_atom_site_label
_atom_site_type_symbol
_atom_site_fract_x
_atom_site_fract_y
_atom_site_fract_z
_atom_site_charge
O          O       0.30539   0.57108   0.00000   0.0000000000
N          N       0.40525   0.59303   0.00000   0.0000000000
C          C       0.31857   0.61439   0.00000   0.0000000000
C          C       0.40982   0.64127   0.00000   0.0000000000
C          C       0.43874   0.57305   0.00000   0.0000000000
C          C       0.49214   0.59702   0.00000   0.0000000000
C          C       0.51373   0.56669   0.00000   0.0000000000
C          C       0.48726   0.51517   0.00000   0.0000000000
C          C       0.43624   0.49340   0.00000   0.0000000000
C          C       0.41338   0.52122   0.00000   0.0000000000
C          C       0.37200   0.65149   0.00000   0.0000000000
H          H       0.44478   0.67270   0.00000   0.0000000000
N          N       0.52725   0.64933   0.00000   0.0000000000
H          H       0.36931   0.56515   0.00000   0.0000000000
H          H       0.37368   0.50068   0.00000   0.0000000000
H          H       0.55281   0.58494   0.00000   0.0000000000
H          H       0.41200   0.45439   0.00000   0.0000000000
O          O       0.42892   0.73431   0.00000   0.0000000000
N          N       0.40697   0.81222   0.00000   0.0000000000
C          C       0.38561   0.70418   0.00000   0.0000000000
C          C       0.35873   0.76855   0.00000   0.0000000000
C          C       0.42695   0.86569   0.00000   0.0000000000
C          C       0.40298   0.89512   0.00000   0.0000000000
C          C       0.43331   0.94704   0.00000   0.0000000000
C          C       0.48483   0.97209   0.00000   0.0000000000
C          C       0.50660   0.94284   0.00000   0.0000000000
C          C       0.47878   0.89216   0.00000   0.0000000000
C          C       0.34851   0.72051   0.00000   0.0000000000
H          H       0.32730   0.77208   0.00000   0.0000000000
N          N       0.35067   0.87792   0.00000   0.0000000000
H          H       0.43485   0.80416   0.00000   0.0000000000
H          H       0.49932   0.87300   0.00000   0.0000000000
H          H       0.41506   0.96787   0.00000   0.0000000000
H          H       0.54561   0.95761   0.00000   0.0000000000
O          O       0.26569   0.69461   0.00000   0.0000000000
N          N       0.18778   0.59475   0.00000   0.0000000000
C          C       0.29582   0.68143   0.00000   0.0000000000
C          C       0.23145   0.59018   0.00000   0.0000000000
C          C       0.13431   0.56126   0.00000   0.0000000000
C          C       0.10488   0.50786   0.00000   0.0000000000
C          C       0.05296   0.48627   0.00000   0.0000000000
C          C       0.02791   0.51274   0.00000   0.0000000000
C          C       0.05716   0.56376   0.00000   0.0000000000
C          C       0.10784   0.58662   0.00000   0.0000000000
C          C       0.27949   0.62800   0.00000   0.0000000000
H          H       0.22792   0.55522   0.00000   0.0000000000
N          N       0.12208   0.47275   0.00000   0.0000000000
H          H       0.19584   0.63069   0.00000   0.0000000000
H          H       0.12700   0.62632   0.00000   0.0000000000
H          H       0.03213   0.44719   0.00000   0.0000000000
H          H       0.04239   0.58800   0.00000   0.0000000000
O          O       0.69461   0.42892   0.00000   0.0000000000
N          N       0.59475   0.40697   0.00000   0.0000000000
C          C       0.68143   0.38561   0.00000   0.0000000000
C          C       0.59018   0.35873   0.00000   0.0000000000
C          C       0.56126   0.42695   0.00000   0.0000000000
C          C       0.50786   0.40298   0.00000   0.0000000000
C          C       0.48627   0.43331   0.00000   0.0000000000
C          C       0.51274   0.48483   0.00000   0.0000000000
C          C       0.56376   0.50660   0.00000   0.0000000000
C          C       0.58662   0.47878   0.00000   0.0000000000
C          C       0.62800   0.34851   0.00000   0.0000000000
H          H       0.55522   0.32730   0.00000   0.0000000000
N          N       0.47275   0.35067   0.00000   0.0000000000
H          H       0.63069   0.43485   0.00000   0.0000000000
H          H       0.62632   0.49932   0.00000   0.0000000000
H          H       0.44719   0.41506   0.00000   0.0000000000
H          H       0.58800   0.54561   0.00000   0.0000000000
O          O       0.57108   0.26569   0.00000   0.0000000000
N          N       0.59303   0.18778   0.00000   0.0000000000
C          C       0.61439   0.29582   0.00000   0.0000000000
C          C       0.64127   0.23145   0.00000   0.0000000000
C          C       0.57305   0.13431   0.00000   0.0000000000
C          C       0.59702   0.10488   0.00000   0.0000000000
C          C       0.56669   0.05296   0.00000   0.0000000000
C          C       0.51517   0.02791   0.00000   0.0000000000
C          C       0.49340   0.05716   0.00000   0.0000000000
C          C       0.52122   0.10784   0.00000   0.0000000000
C          C       0.65149   0.27949   0.00000   0.0000000000
H          H       0.67270   0.22792   0.00000   0.0000000000
N          N       0.64933   0.12208   0.00000   0.0000000000
H          H       0.56515   0.19584   0.00000   0.0000000000
H          H       0.50068   0.12700   0.00000   0.0000000000
H          H       0.58494   0.03213   0.00000   0.0000000000
H          H       0.45439   0.04239   0.00000   0.0000000000
O          O       0.73431   0.30539   0.00000   0.0000000000
N          N       0.81222   0.40525   0.00000   0.0000000000
C          C       0.70418   0.31857   0.00000   0.0000000000
C          C       0.76855   0.40982   0.00000   0.0000000000
C          C       0.86569   0.43874   0.00000   0.0000000000
C          C       0.89512   0.49214   0.00000   0.0000000000
C          C       0.94704   0.51373   0.00000   0.0000000000
C          C       0.97209   0.48726   0.00000   0.0000000000
C          C       0.94284   0.43624   0.00000   0.0000000000
C          C       0.89216   0.41338   0.00000   0.0000000000
C          C       0.72051   0.37200   0.00000   0.0000000000
H          H       0.77208   0.44478   0.00000   0.0000000000
N          N       0.87792   0.52725   0.00000   0.0000000000
H          H       0.80416   0.36931   0.00000   0.0000000000
H          H       0.87300   0.37368   0.00000   0.0000000000
H          H       0.96787   0.55281   0.00000   0.0000000000
H          H       0.95761   0.41200   0.00000   0.0000000000
O          O       0.51520   0.68269   0.00000   0.0000000000
O          O       0.57404   0.66477   0.00000   0.0000000000
O          O       0.31731   0.83251   0.00000   0.0000000000
O          O       0.33523   0.90927   0.00000   0.0000000000
O          O       0.16749   0.48480   0.00000   0.0000000000
O          O       0.09073   0.42596   0.00000   0.0000000000
O          O       0.48480   0.31731   0.00000   0.0000000000
O          O       0.42596   0.33523   0.00000   0.0000000000
O          O       0.68269   0.16749   0.00000   0.0000000000
O          O       0.66477   0.09073   0.00000   0.0000000000
O          O       0.83251   0.51520   0.00000   0.0000000000
O          O       0.90927   0.57404   0.00000   0.0000000000
