data_TpBD-NO2_2
_audit_creation_date              0000-00-00
_audit_creation_method            'LanYouShi'
_symmetry_space_group_name_H-M    'P1'
_cell_length_a                    29.2140007
_cell_length_b                    29.2140007
_cell_length_c                    3.5999999
_cell_angle_alpha                 90.0000000
_cell_angle_beta                  90.0000000
_cell_angle_gamma                 60.0000000
loop_
_atom_site_label
_atom_site_type_symbol
_atom_site_fract_x
_atom_site_fract_y
_atom_site_fract_z
_atom_site_U_iso_or_equiv
_atom_site_adp_type
_atom_site_occupancy
        N1          N  0.3853222  0.4235179  0.3888889    0.00000       Uiso       1.00
        C1          C  0.4015467  0.3718003  0.3888889    0.00000       Uiso       1.00
        C2          C  0.4181462  0.4442589  0.3888889    0.00000       Uiso       1.00
        C3          C  0.4726294  0.4123210  0.3888889    0.00000       Uiso       1.00
        C4          C  0.5038578  0.4345758  0.3888889    0.00000       Uiso       1.00
        C5          C  0.4826234  0.4890435  0.3888889    0.00000       Uiso       1.00
        C6          C  0.4277308  0.5204878  0.3888889    0.00000       Uiso       1.00
        C7          C  0.3959010  0.4985392  0.3888889    0.00000       Uiso       1.00
        H1          H  0.4434487  0.3420044  0.3888889    0.00000       Uiso       1.00
        H3          H  0.3422276  0.4463516  0.3888889    0.00000       Uiso       1.00
        H4          H  0.3524269  0.5233706  0.3888889    0.00000       Uiso       1.00
        H5          H  0.5469095  0.4081548  0.3888889    0.00000       Uiso       1.00
        H6          H  0.4090846  0.5636631  0.3888889    0.00000       Uiso       1.00
        N1          N  0.4978944  0.3528605  0.3888889    0.00000       Uiso       1.00
        O2          O  0.4814816  0.3315686  0.5947348    0.00000       Uiso       1.00
        O3          O  0.5345509  0.3265040  0.1830740    0.00000       Uiso       1.00
        N2          N  0.6146788  0.5764831  0.3888889    0.00000       Uiso       1.00
        C8          C  0.5984543  0.6282007  0.3888889    0.00000       Uiso       1.00
        C9          C  0.5818548  0.5557422  0.3888889    0.00000       Uiso       1.00
       C10          C  0.5273716  0.5876800  0.3888889    0.00000       Uiso       1.00
       C11          C  0.4961432  0.5654253  0.3888889    0.00000       Uiso       1.00
       C12          C  0.5173776  0.5109575  0.3888889    0.00000       Uiso       1.00
       C13          C  0.5722702  0.4795132  0.3888889    0.00000       Uiso       1.00
       C14          C  0.6041000  0.5014618  0.3888889    0.00000       Uiso       1.00
        H7          H  0.5565523  0.6579968  0.3888889    0.00000       Uiso       1.00
        H9          H  0.6577734  0.5536494  0.3888889    0.00000       Uiso       1.00
       H10          H  0.6475742  0.4766304  0.3888889    0.00000       Uiso       1.00
       H11          H  0.4530915  0.5918463  0.3888889    0.00000       Uiso       1.00
       H12          H  0.5909165  0.4363380  0.3888889    0.00000       Uiso       1.00
        N1          N  0.5021066  0.6471405  0.3888889    0.00000       Uiso       1.00
        O2          O  0.5185194  0.6684324  0.5947348    0.00000       Uiso       1.00
        O3          O  0.4654501  0.6734970  0.1830740    0.00000       Uiso       1.00
        N3          N  0.1911609  0.3853222  0.3888889    0.00000       Uiso       1.00
       C15          C  0.2266540  0.4015467  0.3888889    0.00000       Uiso       1.00
       C16          C  0.1375960  0.4181462  0.3888889    0.00000       Uiso       1.00
       C17          C  0.1150506  0.4726294  0.3888889    0.00000       Uiso       1.00
       C18          C  0.0615675  0.5038579  0.3888889    0.00000       Uiso       1.00
       C19          C  0.0283342  0.4826234  0.3888889    0.00000       Uiso       1.00
       C20          C  0.0517823  0.4277309  0.3888889    0.00000       Uiso       1.00
       C21          C  0.1055608  0.3959010  0.3888889    0.00000       Uiso       1.00
       H13          H  0.2145480  0.4434488  0.3888889    0.00000       Uiso       1.00
       H15          H  0.2114218  0.3422276  0.3888889    0.00000       Uiso       1.00
       H16          H  0.1242036  0.3524269  0.3888889    0.00000       Uiso       1.00
       H17          H  0.0449368  0.5469095  0.3888889    0.00000       Uiso       1.00
       H18          H  0.0272534  0.4090846  0.3888889    0.00000       Uiso       1.00
        N1          N  0.1492461  0.4978944  0.3888889    0.00000       Uiso       1.00
        O2          O  0.1869508  0.4814816  0.5947348    0.00000       Uiso       1.00
        O3          O  0.1389462  0.5345508  0.1830740    0.00000       Uiso       1.00
        N4          N  0.8088402  0.6146789  0.3888889    0.00000       Uiso       1.00
       C22          C  0.7733471  0.5984543  0.3888889    0.00000       Uiso       1.00
       C23          C  0.8624051  0.5818548  0.3888889    0.00000       Uiso       1.00
       C24          C  0.8849504  0.5273716  0.3888889    0.00000       Uiso       1.00
       C25          C  0.9384336  0.4961432  0.3888889    0.00000       Uiso       1.00
       C26          C  0.9716668  0.5173777  0.3888889    0.00000       Uiso       1.00
       C27          C  0.9482187  0.5722702  0.3888889    0.00000       Uiso       1.00
       C28          C  0.8944402  0.6041000  0.3888889    0.00000       Uiso       1.00
       H19          H  0.7854531  0.5565523  0.3888889    0.00000       Uiso       1.00
       H21          H  0.7885792  0.6577734  0.3888889    0.00000       Uiso       1.00
       H22          H  0.8757974  0.6475742  0.3888889    0.00000       Uiso       1.00
       H23          H  0.9550644  0.4530915  0.3888889    0.00000       Uiso       1.00
       H24          H  0.9727476  0.5909165  0.3888889    0.00000       Uiso       1.00
        N1          N  0.8507550  0.5021066  0.3888889    0.00000       Uiso       1.00
        O2          O  0.8130502  0.5185195  0.5947348    0.00000       Uiso       1.00
        O3          O  0.8610548  0.4654501  0.1830740    0.00000       Uiso       1.00
        N5          N  0.4235179  0.1911609  0.3888889    0.00000       Uiso       1.00
       C29          C  0.3718003  0.2266540  0.3888889    0.00000       Uiso       1.00
       C30          C  0.4442589  0.1375960  0.3888889    0.00000       Uiso       1.00
       C31          C  0.4123210  0.1150506  0.3888889    0.00000       Uiso       1.00
       C32          C  0.4345758  0.0615675  0.3888889    0.00000       Uiso       1.00
       C33          C  0.4890435  0.0283342  0.3888889    0.00000       Uiso       1.00
       C34          C  0.5204878  0.0517823  0.3888889    0.00000       Uiso       1.00
       C35          C  0.4985392  0.1055608  0.3888889    0.00000       Uiso       1.00
       H25          H  0.3420043  0.2145480  0.3888889    0.00000       Uiso       1.00
       H27          H  0.4463516  0.2114218  0.3888889    0.00000       Uiso       1.00
       H28          H  0.5233706  0.1242036  0.3888889    0.00000       Uiso       1.00
       H29          H  0.4081547  0.0449368  0.3888889    0.00000       Uiso       1.00
       H30          H  0.5636631  0.0272534  0.3888889    0.00000       Uiso       1.00
        N1          N  0.3528605  0.1492461  0.3888889    0.00000       Uiso       1.00
        O2          O  0.3315686  0.1869508  0.5947348    0.00000       Uiso       1.00
        O3          O  0.3265040  0.1389462  0.1830740    0.00000       Uiso       1.00
        N6          N  0.5764831  0.8088402  0.3888889    0.00000       Uiso       1.00
       C36          C  0.6282008  0.7733471  0.3888889    0.00000       Uiso       1.00
       C37          C  0.5557421  0.8624051  0.3888889    0.00000       Uiso       1.00
       C38          C  0.5876800  0.8849505  0.3888889    0.00000       Uiso       1.00
       C39          C  0.5654253  0.9384335  0.3888889    0.00000       Uiso       1.00
       C40          C  0.5109575  0.9716669  0.3888889    0.00000       Uiso       1.00
       C41          C  0.4795132  0.9482188  0.3888889    0.00000       Uiso       1.00
       C42          C  0.5014618  0.8944402  0.3888889    0.00000       Uiso       1.00
       H31          H  0.6579967  0.7854531  0.3888889    0.00000       Uiso       1.00
       H33          H  0.5536494  0.7885792  0.3888889    0.00000       Uiso       1.00
       H34          H  0.4766304  0.8757975  0.3888889    0.00000       Uiso       1.00
       H35          H  0.5918463  0.9550642  0.3888889    0.00000       Uiso       1.00
       H36          H  0.4363380  0.9727476  0.3888889    0.00000       Uiso       1.00
        N1          N  0.6471406  0.8507549  0.3888889    0.00000       Uiso       1.00
        O2          O  0.6684324  0.8130502  0.5947348    0.00000       Uiso       1.00
        O3          O  0.6734970  0.8610549  0.1830740    0.00000       Uiso       1.00
       C43          C  0.6879707  0.6117803  0.3888889    0.00000       Uiso       1.00
       C44          C  0.6322758  0.6448879  0.3888889    0.00000       Uiso       1.00
        O1          O  0.7063499  0.5664091  0.3888889    0.00000       Uiso       1.00
       C45          C  0.6117803  0.7002511  0.3888889    0.00000       Uiso       1.00
       C46          C  0.6448879  0.7228383  0.3888889    0.00000       Uiso       1.00
        O2          O  0.5664091  0.7272431  0.3888889    0.00000       Uiso       1.00
       C47          C  0.7002512  0.6879706  0.3888889    0.00000       Uiso       1.00
       C48          C  0.7228384  0.6322758  0.3888889    0.00000       Uiso       1.00
        O3          O  0.7272431  0.7063500  0.3888889    0.00000       Uiso       1.00
       C49          C  0.3120304  0.3882208  0.3888889    0.00000       Uiso       1.00
       C50          C  0.3677253  0.3551131  0.3888889    0.00000       Uiso       1.00
        O4          O  0.2936511  0.4335920  0.3888889    0.00000       Uiso       1.00
       C51          C  0.3882207  0.2997499  0.3888889    0.00000       Uiso       1.00
       C52          C  0.3551131  0.2771627  0.3888889    0.00000       Uiso       1.00
        O5          O  0.4335920  0.2727579  0.3888889    0.00000       Uiso       1.00
       C53          C  0.2997499  0.3120304  0.3888889    0.00000       Uiso       1.00
       C54          C  0.2771626  0.3677253  0.3888889    0.00000       Uiso       1.00
        O6          O  0.2727579  0.2936511  0.3888889    0.00000       Uiso       1.00
