data_crystal
 
_cell_length_a    30.42400
_cell_length_b    30.42400
_cell_length_c    3.96800
_cell_angle_alpha 90.00000
_cell_angle_beta  90.00000
_cell_angle_gamma 120.00000
 
_symmetry_space_group_name_Hall 'P 1'
_symmetry_space_group_name_H-M  'P 1'
 
loop_
_symmetry_equiv_pos_as_xyz
 'x,y,z' 
 
loop_
_atom_site_label
_atom_site_type_symbol
_atom_site_fract_x
_atom_site_fract_y
_atom_site_fract_z
_atom_site_charge
H          H       0.67951   0.59067  -0.22099   0.0000000000
H          H       0.40933   0.08884  -0.22099   0.0000000000
H          H       0.91116   0.32049  -0.22099   0.0000000000
H          H       0.32049   0.40933  -0.22099   0.0000000000
H          H       0.59067   0.91116  -0.22099   0.0000000000
H          H       0.08884   0.67951  -0.22099   0.0000000000
H          H       0.32049   0.40933   0.22099   0.0000000000
H          H       0.59067   0.91116   0.22099   0.0000000000
H          H       0.08884   0.67951   0.22099   0.0000000000
H          H       0.67951   0.59067   0.22099   0.0000000000
H          H       0.40933   0.08884   0.22099   0.0000000000
H          H       0.91116   0.32049   0.22099   0.0000000000
H          H       0.49603   0.62878   0.00000   0.0000000000
H          H       0.54480   0.58989   0.00000   0.0000000000
H          H       0.41132   0.44631   0.00000   0.0000000000
O          O       0.65128   0.51954   0.00000   0.0000000000
C          C       0.68535   0.57325   0.00000   0.0000000000
H          H       0.72431   0.58056   0.00000   0.0000000000
O          O       0.29848   0.56738   0.00000   0.0000000000
N          N       0.39328   0.58237   0.00000   0.0000000000
C          C       0.31534   0.61438   0.00000   0.0000000000
C          C       0.40501   0.63169   0.00000   0.0000000000
C          C       0.42397   0.56163   0.00000   0.0000000000
C          C       0.47743   0.59009   0.00000   0.0000000000
C          C       0.50663   0.56599   0.00000   0.0000000000
C          C       0.48491   0.51223   0.00000   0.0000000000
C          C       0.43081   0.48469   0.00000   0.0000000000
C          C       0.40069   0.50802   0.00000   0.0000000000
C          C       0.36863   0.64815   0.00000   0.0000000000
H          H       0.37122   0.86725   0.00000   0.0000000000
H          H       0.41011   0.95491   0.00000   0.0000000000
H          H       0.55369   0.96501   0.00000   0.0000000000
O          O       0.48046   0.13173   0.00000   0.0000000000
C          C       0.42675   0.11210   0.00000   0.0000000000
H          H       0.41944   0.14375   0.00000   0.0000000000
O          O       0.43262   0.73110   0.00000   0.0000000000
N          N       0.41762   0.81091   0.00000   0.0000000000
C          C       0.38562   0.70096   0.00000   0.0000000000
C          C       0.36831   0.77332   0.00000   0.0000000000
C          C       0.43837   0.86234   0.00000   0.0000000000
C          C       0.40991   0.88734   0.00000   0.0000000000
C          C       0.43401   0.94064   0.00000   0.0000000000
C          C       0.48777   0.97268   0.00000   0.0000000000
C          C       0.51531   0.94612   0.00000   0.0000000000
C          C       0.49198   0.89267   0.00000   0.0000000000
C          C       0.35185   0.72048   0.00000   0.0000000000
H          H       0.13275   0.50397   0.00000   0.0000000000
H          H       0.04509   0.45520   0.00000   0.0000000000
H          H       0.03499   0.58868   0.00000   0.0000000000
O          O       0.86826   0.34872   0.00000   0.0000000000
C          C       0.88790   0.31465   0.00000   0.0000000000
H          H       0.85624   0.27569   0.00000   0.0000000000
O          O       0.26890   0.70152   0.00000   0.0000000000
N          N       0.18909   0.60671   0.00000   0.0000000000
C          C       0.29904   0.68466   0.00000   0.0000000000
C          C       0.22668   0.59499   0.00000   0.0000000000
C          C       0.13766   0.57603   0.00000   0.0000000000
C          C       0.11266   0.52256   0.00000   0.0000000000
C          C       0.05936   0.49337   0.00000   0.0000000000
C          C       0.02731   0.51508   0.00000   0.0000000000
C          C       0.05388   0.56919   0.00000   0.0000000000
C          C       0.10733   0.59931   0.00000   0.0000000000
C          C       0.27952   0.63137   0.00000   0.0000000000
H          H       0.50397   0.37122   0.00000   0.0000000000
H          H       0.45520   0.41011   0.00000   0.0000000000
H          H       0.58868   0.55369   0.00000   0.0000000000
O          O       0.34872   0.48046   0.00000   0.0000000000
C          C       0.31465   0.42675   0.00000   0.0000000000
H          H       0.27569   0.41944   0.00000   0.0000000000
O          O       0.70152   0.43262   0.00000   0.0000000000
N          N       0.60671   0.41762   0.00000   0.0000000000
C          C       0.68466   0.38562   0.00000   0.0000000000
C          C       0.59499   0.36831   0.00000   0.0000000000
C          C       0.57603   0.43837   0.00000   0.0000000000
C          C       0.52256   0.40991   0.00000   0.0000000000
C          C       0.49337   0.43401   0.00000   0.0000000000
C          C       0.51508   0.48777   0.00000   0.0000000000
C          C       0.56919   0.51531   0.00000   0.0000000000
C          C       0.59931   0.49198   0.00000   0.0000000000
C          C       0.63137   0.35185   0.00000   0.0000000000
H          H       0.62878   0.13275   0.00000   0.0000000000
H          H       0.58989   0.04509   0.00000   0.0000000000
H          H       0.44631   0.03499   0.00000   0.0000000000
O          O       0.51954   0.86826   0.00000   0.0000000000
C          C       0.57325   0.88790   0.00000   0.0000000000
H          H       0.58056   0.85624   0.00000   0.0000000000
O          O       0.56738   0.26890   0.00000   0.0000000000
N          N       0.58237   0.18909   0.00000   0.0000000000
C          C       0.61438   0.29904   0.00000   0.0000000000
C          C       0.63169   0.22668   0.00000   0.0000000000
C          C       0.56163   0.13766   0.00000   0.0000000000
C          C       0.59009   0.11266   0.00000   0.0000000000
C          C       0.56599   0.05936   0.00000   0.0000000000
C          C       0.51223   0.02731   0.00000   0.0000000000
C          C       0.48469   0.05388   0.00000   0.0000000000
C          C       0.50802   0.10733   0.00000   0.0000000000
C          C       0.64815   0.27952   0.00000   0.0000000000
H          H       0.86725   0.49603   0.00000   0.0000000000
H          H       0.95491   0.54480   0.00000   0.0000000000
H          H       0.96501   0.41132   0.00000   0.0000000000
O          O       0.13173   0.65128   0.00000   0.0000000000
C          C       0.11210   0.68535   0.00000   0.0000000000
H          H       0.14375   0.72431   0.00000   0.0000000000
O          O       0.73110   0.29848   0.00000   0.0000000000
N          N       0.81091   0.39328   0.00000   0.0000000000
C          C       0.70096   0.31534   0.00000   0.0000000000
C          C       0.77332   0.40501   0.00000   0.0000000000
C          C       0.86234   0.42397   0.00000   0.0000000000
C          C       0.88734   0.47743   0.00000   0.0000000000
C          C       0.94064   0.50663   0.00000   0.0000000000
C          C       0.97268   0.48491   0.00000   0.0000000000
C          C       0.94612   0.43081   0.00000   0.0000000000
C          C       0.89267   0.40069   0.00000   0.0000000000
C          C       0.72048   0.36863   0.00000   0.0000000000
H          H       0.35695   0.55733   0.00000   0.0000000000
H          H       0.44260   0.65895   0.00000   0.0000000000
H          H       0.44267   0.79962   0.00000   0.0000000000
H          H       0.34105   0.78366   0.00000   0.0000000000
H          H       0.20038   0.64305   0.00000   0.0000000000
H          H       0.21634   0.55739   0.00000   0.0000000000
H          H       0.64305   0.44267   0.00000   0.0000000000
H          H       0.55739   0.34105   0.00000   0.0000000000
H          H       0.55733   0.20038   0.00000   0.0000000000
H          H       0.65895   0.21634   0.00000   0.0000000000
H          H       0.79962   0.35695   0.00000   0.0000000000
H          H       0.78366   0.44260   0.00000   0.0000000000
