data_TpBD-OMe2-FF
_audit_creation_date              0000-00-00
_audit_creation_method            'LanYouShi'
_symmetry_space_group_name_H-M    'P1'
_cell_length_a                    30.4239998
_cell_length_b                    30.4239998
_cell_length_c                    3.9679999
_cell_angle_alpha                 90.0000000
_cell_angle_beta                  90.0000000
_cell_angle_gamma                 120.0000000
loop_
_atom_site_label
_atom_site_type_symbol
_atom_site_fract_x
_atom_site_fract_y
_atom_site_fract_z
_atom_site_U_iso_or_equiv
_atom_site_adp_type
_atom_site_occupancy
        H1          H  0.6795139  0.5906716 -0.2209907    0.00000       Uiso       1.00
        H2          H  0.4093274  0.0888422 -0.2209907    0.00000       Uiso       1.00
        H3          H  0.9111569  0.3204852 -0.2209907    0.00000       Uiso       1.00
        H4          H  0.3204853  0.4093275 -0.2209907    0.00000       Uiso       1.00
        H5          H  0.5906716  0.9111569 -0.2209907    0.00000       Uiso       1.00
        H6          H  0.0888422  0.6795138 -0.2209907    0.00000       Uiso       1.00
        H7          H  0.3204853  0.4093275  0.2209907    0.00000       Uiso       1.00
        H8          H  0.5906716  0.9111569  0.2209907    0.00000       Uiso       1.00
        H9          H  0.0888422  0.6795138  0.2209907    0.00000       Uiso       1.00
       H10          H  0.6795139  0.5906716  0.2209907    0.00000       Uiso       1.00
       H11          H  0.4093274  0.0888422  0.2209907    0.00000       Uiso       1.00
       H12          H  0.9111569  0.3204852  0.2209907    0.00000       Uiso       1.00
       H13          H  0.4960327  0.6287825  0.0000000    0.00000       Uiso       1.00
       H14          H  0.5448028  0.5898920  0.0000000    0.00000       Uiso       1.00
       H15          H  0.4113204  0.4463077  0.0000000    0.00000       Uiso       1.00
        O1          O  0.6512771  0.5195427  0.0000000    0.00000       Uiso       1.00
        C1          C  0.6853462  0.5732512  0.0000000    0.00000       Uiso       1.00
       H16          H  0.7243093  0.5805550  0.0000000    0.00000       Uiso       1.00
        O2          O  0.2984828  0.5673798  0.0000000    0.00000       Uiso       1.00
        N1          N  0.3932844  0.5823746  0.0000000    0.00000       Uiso       1.00
        C2          C  0.3153379  0.6143817  0.0000000    0.00000       Uiso       1.00
        C3          C  0.4050129  0.6316931  0.0000000    0.00000       Uiso       1.00
        C4          C  0.4239695  0.5616258  0.0000000    0.00000       Uiso       1.00
        C5          C  0.4774342  0.5900915  0.0000000    0.00000       Uiso       1.00
        C6          C  0.5066279  0.5659866  0.0000000    0.00000       Uiso       1.00
        C7          C  0.4849150  0.5122291  0.0000000    0.00000       Uiso       1.00
        C8          C  0.4308120  0.4846886  0.0000000    0.00000       Uiso       1.00
        C9          C  0.4006866  0.5080193  0.0000000    0.00000       Uiso       1.00
       C10          C  0.3686251  0.6481461  0.0000000    0.00000       Uiso       1.00
       H17          H  0.3712165  0.8672492  0.0000000    0.00000       Uiso       1.00
       H18          H  0.4101071  0.9549100  0.0000000    0.00000       Uiso       1.00
       H19          H  0.5536914  0.9650118  0.0000000    0.00000       Uiso       1.00
        O3          O  0.4804564  0.1317344  0.0000000    0.00000       Uiso       1.00
       C11          C  0.4267479  0.1120950  0.0000000    0.00000       Uiso       1.00
       H20          H  0.4194441  0.1437542  0.0000000    0.00000       Uiso       1.00
        O4          O  0.4326192  0.7311021  0.0000000    0.00000       Uiso       1.00
        N2          N  0.4176244  0.8109089  0.0000000    0.00000       Uiso       1.00
       C12          C  0.3856174  0.7009553  0.0000000    0.00000       Uiso       1.00
       C13          C  0.3683060  0.7733189  0.0000000    0.00000       Uiso       1.00
       C14          C  0.4383732  0.8623427  0.0000000    0.00000       Uiso       1.00
       C15          C  0.4099075  0.8873418  0.0000000    0.00000       Uiso       1.00
       C16          C  0.4340125  0.9406405  0.0000000    0.00000       Uiso       1.00
       C17          C  0.4877700  0.9726849  0.0000000    0.00000       Uiso       1.00
       C18          C  0.5153105  0.9461226  0.0000000    0.00000       Uiso       1.00
       C19          C  0.4919797  0.8926663  0.0000000    0.00000       Uiso       1.00
       C20          C  0.3518530  0.7204781  0.0000000    0.00000       Uiso       1.00
       H21          H  0.1327499  0.5039664  0.0000000    0.00000       Uiso       1.00
       H22          H  0.0450891  0.4551962  0.0000000    0.00000       Uiso       1.00
       H23          H  0.0349872  0.5886787  0.0000000    0.00000       Uiso       1.00
        O5          O  0.8682647  0.3487220  0.0000000    0.00000       Uiso       1.00
       C21          C  0.8879041  0.3146529  0.0000000    0.00000       Uiso       1.00
       H24          H  0.8562449  0.2756898  0.0000000    0.00000       Uiso       1.00
        O6          O  0.2688970  0.7015163  0.0000000    0.00000       Uiso       1.00
        N3          N  0.1890902  0.6067147  0.0000000    0.00000       Uiso       1.00
       C22          C  0.2990438  0.6846611  0.0000000    0.00000       Uiso       1.00
       C23          C  0.2266802  0.5949862  0.0000000    0.00000       Uiso       1.00
       C24          C  0.1376564  0.5760296  0.0000000    0.00000       Uiso       1.00
       C25          C  0.1126573  0.5225649  0.0000000    0.00000       Uiso       1.00
       C26          C  0.0593586  0.4933711  0.0000000    0.00000       Uiso       1.00
       C27          C  0.0273142  0.5150841  0.0000000    0.00000       Uiso       1.00
       C28          C  0.0538766  0.5691870  0.0000000    0.00000       Uiso       1.00
       C29          C  0.1073328  0.5993125  0.0000000    0.00000       Uiso       1.00
       C30          C  0.2795210  0.6313740  0.0000000    0.00000       Uiso       1.00
       H25          H  0.5039664  0.3712165  0.0000000    0.00000       Uiso       1.00
       H26          H  0.4551962  0.4101071  0.0000000    0.00000       Uiso       1.00
       H27          H  0.5886787  0.5536914  0.0000000    0.00000       Uiso       1.00
        O7          O  0.3487220  0.4804564  0.0000000    0.00000       Uiso       1.00
       C31          C  0.3146529  0.4267479  0.0000000    0.00000       Uiso       1.00
       H28          H  0.2756898  0.4194441  0.0000000    0.00000       Uiso       1.00
        O8          O  0.7015163  0.4326192  0.0000000    0.00000       Uiso       1.00
        N4          N  0.6067147  0.4176244  0.0000000    0.00000       Uiso       1.00
       C32          C  0.6846611  0.3856174  0.0000000    0.00000       Uiso       1.00
       C33          C  0.5949862  0.3683060  0.0000000    0.00000       Uiso       1.00
       C34          C  0.5760296  0.4383733  0.0000000    0.00000       Uiso       1.00
       C35          C  0.5225648  0.4099075  0.0000000    0.00000       Uiso       1.00
       C36          C  0.4933711  0.4340125  0.0000000    0.00000       Uiso       1.00
       C37          C  0.5150841  0.4877700  0.0000000    0.00000       Uiso       1.00
       C38          C  0.5691870  0.5153105  0.0000000    0.00000       Uiso       1.00
       C39          C  0.5993125  0.4919797  0.0000000    0.00000       Uiso       1.00
       C40          C  0.6313740  0.3518530  0.0000000    0.00000       Uiso       1.00
       H29          H  0.6287826  0.1327499  0.0000000    0.00000       Uiso       1.00
       H30          H  0.5898919  0.0450891  0.0000000    0.00000       Uiso       1.00
       H31          H  0.4463077  0.0349872  0.0000000    0.00000       Uiso       1.00
        O9          O  0.5195427  0.8682647  0.0000000    0.00000       Uiso       1.00
       C41          C  0.5732512  0.8879041  0.0000000    0.00000       Uiso       1.00
       H32          H  0.5805550  0.8562449  0.0000000    0.00000       Uiso       1.00
       O10          O  0.5673798  0.2688970  0.0000000    0.00000       Uiso       1.00
        N5          N  0.5823746  0.1890902  0.0000000    0.00000       Uiso       1.00
       C42          C  0.6143817  0.2990438  0.0000000    0.00000       Uiso       1.00
       C43          C  0.6316931  0.2266802  0.0000000    0.00000       Uiso       1.00
       C44          C  0.5616258  0.1376563  0.0000000    0.00000       Uiso       1.00
       C45          C  0.5900916  0.1126573  0.0000000    0.00000       Uiso       1.00
       C46          C  0.5659866  0.0593586  0.0000000    0.00000       Uiso       1.00
       C47          C  0.5122291  0.0273142  0.0000000    0.00000       Uiso       1.00
       C48          C  0.4846886  0.0538766  0.0000000    0.00000       Uiso       1.00
       C49          C  0.5080194  0.1073328  0.0000000    0.00000       Uiso       1.00
       C50          C  0.6481461  0.2795210  0.0000000    0.00000       Uiso       1.00
       H33          H  0.8672492  0.4960327  0.0000000    0.00000       Uiso       1.00
       H34          H  0.9549100  0.5448029  0.0000000    0.00000       Uiso       1.00
       H35          H  0.9650118  0.4113204  0.0000000    0.00000       Uiso       1.00
       O11          O  0.1317343  0.6512770  0.0000000    0.00000       Uiso       1.00
       C51          C  0.1120950  0.6853462  0.0000000    0.00000       Uiso       1.00
       H36          H  0.1437542  0.7243092  0.0000000    0.00000       Uiso       1.00
       O12          O  0.7311020  0.2984828  0.0000000    0.00000       Uiso       1.00
        N6          N  0.8109089  0.3932844  0.0000000    0.00000       Uiso       1.00
       C52          C  0.7009553  0.3153379  0.0000000    0.00000       Uiso       1.00
       C53          C  0.7733188  0.4050129  0.0000000    0.00000       Uiso       1.00
       C54          C  0.8623427  0.4239695  0.0000000    0.00000       Uiso       1.00
       C55          C  0.8873417  0.4774342  0.0000000    0.00000       Uiso       1.00
       C56          C  0.9406404  0.5066280  0.0000000    0.00000       Uiso       1.00
       C57          C  0.9726849  0.4849149  0.0000000    0.00000       Uiso       1.00
       C58          C  0.9461225  0.4308120  0.0000000    0.00000       Uiso       1.00
       C59          C  0.8926663  0.4006866  0.0000000    0.00000       Uiso       1.00
       C60          C  0.7204781  0.3686251  0.0000000    0.00000       Uiso       1.00
       H37          H  0.3569523  0.5573339  0.0000000    0.00000       Uiso       1.00
       H38          H  0.4426049  0.6589484  0.0000000    0.00000       Uiso       1.00
       H39          H  0.4426652  0.7996175  0.0000000    0.00000       Uiso       1.00
       H40          H  0.3410507  0.7836556  0.0000000    0.00000       Uiso       1.00
       H41          H  0.2003816  0.6430468  0.0000000    0.00000       Uiso       1.00
       H42          H  0.2163435  0.5573942  0.0000000    0.00000       Uiso       1.00
       H43          H  0.6430467  0.4426652  0.0000000    0.00000       Uiso       1.00
       H44          H  0.5573942  0.3410507  0.0000000    0.00000       Uiso       1.00
       H45          H  0.5573339  0.2003816  0.0000000    0.00000       Uiso       1.00
       H46          H  0.6589484  0.2163435  0.0000000    0.00000       Uiso       1.00
       H47          H  0.7996175  0.3569523  0.0000000    0.00000       Uiso       1.00
       H48          H  0.7836556  0.4426049  0.0000000    0.00000       Uiso       1.00
