data_BF-COF-2
_audit_creation_date              0000-00-00
_audit_creation_method            'LanYouShi'
_symmetry_space_group_name_H-M    'P1'
_cell_length_a                    16.2317009
_cell_length_b                    16.2317009
_cell_length_c                    16.2521000
_cell_angle_alpha                 90.0000000
_cell_angle_beta                  90.0000000
_cell_angle_gamma                 90.0000000
loop_
_atom_site_label
_atom_site_type_symbol
_atom_site_fract_x
_atom_site_fract_y
_atom_site_fract_z
_atom_site_U_iso_or_equiv
_atom_site_adp_type
_atom_site_occupancy
        C1          C  0.3463478  0.6103710  0.3422963    0.00000       Uiso       1.00
        C2          C  0.6536521  0.3896290  0.3422963    0.00000       Uiso       1.00
        C3          C  0.6103710  0.6536521  0.6577038    0.00000       Uiso       1.00
        C4          C  0.3896290  0.3463478  0.6577038    0.00000       Uiso       1.00
        H1          H  0.3115773  0.5589136  0.3532415    0.00000       Uiso       1.00
        H2          H  0.6884226  0.4410863  0.3532415    0.00000       Uiso       1.00
        H3          H  0.5589136  0.6884226  0.6467585    0.00000       Uiso       1.00
        H4          H  0.4410863  0.3115773  0.6467585    0.00000       Uiso       1.00
        C5          C  0.8393268  0.3376421  0.1065705    0.00000       Uiso       1.00
        C6          C  0.1606732  0.6623578  0.1065705    0.00000       Uiso       1.00
        C7          C  0.3376421  0.1606732  0.8934295    0.00000       Uiso       1.00
        C8          C  0.6623578  0.8393268  0.8934295    0.00000       Uiso       1.00
        H5          H  0.8492132  0.3056326  0.0531459    0.00000       Uiso       1.00
        H6          H  0.1507868  0.6943673  0.0531459    0.00000       Uiso       1.00
        H7          H  0.3056326  0.1507868  0.9468541    0.00000       Uiso       1.00
        H8          H  0.6943673  0.8492132  0.9468541    0.00000       Uiso       1.00
        C9          C  0.8443952  0.5989090  0.8456604    0.00000       Uiso       1.00
       C10          C  0.1556048  0.4010909  0.8456604    0.00000       Uiso       1.00
       C11          C  0.5989090  0.1556048  0.1543396    0.00000       Uiso       1.00
       C12          C  0.4010909  0.8443952  0.1543396    0.00000       Uiso       1.00
        N1          N  0.8925841  0.6130754  0.9123909    0.00000       Uiso       1.00
        N2          N  0.1074158  0.3869246  0.9123909    0.00000       Uiso       1.00
        N3          N  0.6130754  0.1074158  0.0876091    0.00000       Uiso       1.00
        N4          N  0.3869246  0.8925841  0.0876091    0.00000       Uiso       1.00
        H9          H  0.8536927  0.5451763  0.8139065    0.00000       Uiso       1.00
       H10          H  0.1463072  0.4548237  0.8139065    0.00000       Uiso       1.00
       H11          H  0.5451763  0.1463072  0.1860935    0.00000       Uiso       1.00
       H12          H  0.4548237  0.8536927  0.1860935    0.00000       Uiso       1.00
       H13          H  0.8847967  0.6667932  0.9378027    0.00000       Uiso       1.00
       H14          H  0.1152032  0.3332068  0.9378027    0.00000       Uiso       1.00
       H15          H  0.6667932  0.1152032  0.0621973    0.00000       Uiso       1.00
       H16          H  0.3332068  0.8847967  0.0621973    0.00000       Uiso       1.00
        N5          N  0.6211810  0.5856494  0.6102961    0.00000       Uiso       1.00
        N6          N  0.3788190  0.4143506  0.6102961    0.00000       Uiso       1.00
        N7          N  0.5856494  0.3788190  0.3897039    0.00000       Uiso       1.00
        N8          N  0.4143506  0.6211810  0.3897039    0.00000       Uiso       1.00
       H17          H  0.6726500  0.5561541  0.6194658    0.00000       Uiso       1.00
       H18          H  0.3273500  0.4438458  0.6194658    0.00000       Uiso       1.00
       H19          H  0.5561541  0.3273500  0.3805342    0.00000       Uiso       1.00
       H20          H  0.4438458  0.6726500  0.3805342    0.00000       Uiso       1.00
        N9          N  0.5962570  0.8882633  0.8785255    0.00000       Uiso       1.00
       N10          N  0.4037430  0.1117366  0.8785255    0.00000       Uiso       1.00
       N11          N  0.8882633  0.4037430  0.1214745    0.00000       Uiso       1.00
       N12          N  0.1117366  0.5962570  0.1214745    0.00000       Uiso       1.00
       H21          H  0.5706067  0.8800564  0.8250558    0.00000       Uiso       1.00
       H22          H  0.4293933  0.1199435  0.8250558    0.00000       Uiso       1.00
       H23          H  0.8800564  0.4293933  0.1749442    0.00000       Uiso       1.00
       H24          H  0.1199435  0.5706067  0.1749442    0.00000       Uiso       1.00
       C13          C  0.6096560  0.4854803  0.5007795    0.00000       Uiso       1.00
       C14          C  0.3903439  0.5145196  0.5007795    0.00000       Uiso       1.00
       C15          C  0.4854803  0.3903439  0.4992205    0.00000       Uiso       1.00
       C16          C  0.5145196  0.6096560  0.4992205    0.00000       Uiso       1.00
       C17          C  0.0024618  0.6106890  0.0110884    0.00000       Uiso       1.00
       C18          C  0.9975381  0.3893109  0.0110884    0.00000       Uiso       1.00
       C19          C  0.6106890  0.9975381  0.9889116    0.00000       Uiso       1.00
       C20          C  0.3893109  0.0024618  0.9889116    0.00000       Uiso       1.00
       C21          C  0.5000000  0.0000000  0.1001742    0.00000       Uiso       1.00
       C22          C  0.0000000  0.5000000  0.8998259    0.00000       Uiso       1.00
       C23          C  0.5000000  0.0000000  0.8790084    0.00000       Uiso       1.00
       C24          C  0.0000000  0.5000000  0.1209916    0.00000       Uiso       1.00
       C25          C  0.5482667  0.4375882  0.4437114    0.00000       Uiso       1.00
       C26          C  0.4517332  0.5624117  0.4437114    0.00000       Uiso       1.00
       C27          C  0.4375882  0.4517332  0.5562885    0.00000       Uiso       1.00
       C28          C  0.5624117  0.5482667  0.5562885    0.00000       Uiso       1.00
       C29          C  0.9451365  0.5570363  0.9551643    0.00000       Uiso       1.00
       C30          C  0.0548635  0.4429636  0.9551643    0.00000       Uiso       1.00
       C31          C  0.5570363  0.0548635  0.0448357    0.00000       Uiso       1.00
       C32          C  0.4429636  0.9451365  0.0448357    0.00000       Uiso       1.00
       C33          C  0.9425367  0.4455634  0.0665174    0.00000       Uiso       1.00
       C34          C  0.0574632  0.5544366  0.0665174    0.00000       Uiso       1.00
       C35          C  0.4455634  0.0574632  0.9334826    0.00000       Uiso       1.00
       C36          C  0.5544366  0.9425367  0.9334826    0.00000       Uiso       1.00
       H25          H  0.5195517  0.3452884  0.5356065    0.00000       Uiso       1.00
       H26          H  0.4804482  0.6547115  0.5356065    0.00000       Uiso       1.00
       H27          H  0.3452884  0.4804482  0.4643936    0.00000       Uiso       1.00
       H28          H  0.6547115  0.5195517  0.4643936    0.00000       Uiso       1.00
       H29          H  0.4414463  0.3560178  0.4616133    0.00000       Uiso       1.00
       H30          H  0.5585536  0.6439822  0.4616133    0.00000       Uiso       1.00
       H31          H  0.3560178  0.5585536  0.5383868    0.00000       Uiso       1.00
       H32          H  0.6439822  0.4414463  0.5383868    0.00000       Uiso       1.00
       H33          H  0.0378955  0.5386934  0.8601201    0.00000       Uiso       1.00
       H34          H  0.9621044  0.4613065  0.8601201    0.00000       Uiso       1.00
       H35          H  0.5386934  0.9621044  0.1398799    0.00000       Uiso       1.00
       H36          H  0.4613065  0.0378955  0.1398799    0.00000       Uiso       1.00
       H37          H  0.0366767  0.4602106  0.1611836    0.00000       Uiso       1.00
       H38          H  0.9633233  0.5397893  0.1611836    0.00000       Uiso       1.00
       H39          H  0.4602106  0.9633233  0.8388163    0.00000       Uiso       1.00
       H40          H  0.5397893  0.0366767  0.8388163    0.00000       Uiso       1.00
       H41          H  0.3502913  0.0406599  0.0281370    0.00000       Uiso       1.00
       H42          H  0.6497086  0.9593400  0.0281370    0.00000       Uiso       1.00
       H43          H  0.0406599  0.6497086  0.9718630    0.00000       Uiso       1.00
       H44          H  0.9593400  0.3502913  0.9718630    0.00000       Uiso       1.00
       H45          H  0.6516221  0.0339006  0.9497295    0.00000       Uiso       1.00
       H46          H  0.3483779  0.9660993  0.9497295    0.00000       Uiso       1.00
       H47          H  0.0339006  0.3483779  0.0502705    0.00000       Uiso       1.00
       H48          H  0.9660993  0.6516221  0.0502705    0.00000       Uiso       1.00
       H49          H  0.5427589  0.5331342  0.3492319    0.00000       Uiso       1.00
       H50          H  0.4572410  0.4668658  0.3492319    0.00000       Uiso       1.00
       H51          H  0.5331342  0.4572410  0.6507681    0.00000       Uiso       1.00
       H52          H  0.4668658  0.5427589  0.6507681    0.00000       Uiso       1.00
       H53          H  0.8502861  0.5420880  0.0495382    0.00000       Uiso       1.00
       H54          H  0.1497139  0.4579119  0.0495382    0.00000       Uiso       1.00
       H55          H  0.5420880  0.1497139  0.9504617    0.00000       Uiso       1.00
       H56          H  0.4579119  0.8502861  0.9504617    0.00000       Uiso       1.00
       H57          H  0.8480335  0.4655916  0.9731067    0.00000       Uiso       1.00
       H58          H  0.1519664  0.5344083  0.9731067    0.00000       Uiso       1.00
       H59          H  0.4655916  0.1519664  0.0268933    0.00000       Uiso       1.00
       H60          H  0.5344083  0.8480335  0.0268933    0.00000       Uiso       1.00
       C37          C  0.7564682  0.7245288  0.8636446    0.00000       Uiso       1.00
       C38          C  0.2435316  0.2754711  0.8636446    0.00000       Uiso       1.00
       C39          C  0.7245288  0.2435316  0.1363554    0.00000       Uiso       1.00
       C40          C  0.2754711  0.7564682  0.1363554    0.00000       Uiso       1.00
       C41          C  0.3687428  0.7325028  0.2508180    0.00000       Uiso       1.00
       C42          C  0.6312571  0.2674971  0.2508180    0.00000       Uiso       1.00
       C43          C  0.7325028  0.6312571  0.7491820    0.00000       Uiso       1.00
       C44          C  0.2674971  0.3687428  0.7491820    0.00000       Uiso       1.00
       C45          C  0.3570131  0.2506517  0.7697653    0.00000       Uiso       1.00
       C46          C  0.6429868  0.7493482  0.7697653    0.00000       Uiso       1.00
       C47          C  0.2506517  0.6429868  0.2302348    0.00000       Uiso       1.00
       C48          C  0.7493482  0.3570131  0.2302348    0.00000       Uiso       1.00
       C49          C  0.7797222  0.6523163  0.8197294    0.00000       Uiso       1.00
       C50          C  0.2202778  0.3476837  0.8197294    0.00000       Uiso       1.00
       C51          C  0.6523163  0.2202778  0.1802706    0.00000       Uiso       1.00
       C52          C  0.3476837  0.7797222  0.1802706    0.00000       Uiso       1.00
       C53          C  0.2269642  0.6871352  0.1585176    0.00000       Uiso       1.00
       C54          C  0.7730358  0.3128648  0.1585176    0.00000       Uiso       1.00
       C55          C  0.6871352  0.7730358  0.8414824    0.00000       Uiso       1.00
       C56          C  0.3128648  0.2269642  0.8414824    0.00000       Uiso       1.00
       C57          C  0.6777273  0.3371336  0.2763513    0.00000       Uiso       1.00
       C58          C  0.3222727  0.6628664  0.2763513    0.00000       Uiso       1.00
       C59          C  0.3371336  0.3222727  0.7236487    0.00000       Uiso       1.00
       C60          C  0.6628664  0.6777273  0.7236487    0.00000       Uiso       1.00
        O1          O  0.7966198  0.7465616  0.9260138    0.00000       Uiso       1.00
        O2          O  0.2033801  0.2534384  0.9260138    0.00000       Uiso       1.00
        O3          O  0.7465616  0.2033801  0.0739862    0.00000       Uiso       1.00
        O4          O  0.2534384  0.7966198  0.0739862    0.00000       Uiso       1.00
        O5          O  0.4321423  0.7528879  0.2903097    0.00000       Uiso       1.00
        O6          O  0.5678577  0.2471120  0.2903097    0.00000       Uiso       1.00
        O7          O  0.7528879  0.5678577  0.7096903    0.00000       Uiso       1.00
        O8          O  0.2471120  0.4321423  0.7096903    0.00000       Uiso       1.00
        O9          O  0.4176104  0.2086203  0.7461511    0.00000       Uiso       1.00
       O10          O  0.5823895  0.7913797  0.7461511    0.00000       Uiso       1.00
       O11          O  0.2086203  0.5823895  0.2538488    0.00000       Uiso       1.00
       O12          O  0.7913797  0.4176104  0.2538488    0.00000       Uiso       1.00
       C61          C  0.8892022  0.5027919  0.0111103    0.00000       Uiso       1.00
       C62          C  0.1107978  0.4972081  0.0111103    0.00000       Uiso       1.00
       C63          C  0.5027919  0.1107978  0.9888898    0.00000       Uiso       1.00
       C64          C  0.4972081  0.8892022  0.9888898    0.00000       Uiso       1.00
       C65          C  0.5000000  0.5000000  0.3892473    0.00000       Uiso       1.00
       C66          C  0.5000000  0.5000000  0.6107527    0.00000       Uiso       1.00
