data_TpBDH
_audit_creation_date              0000-00-00
_audit_creation_method            'LanYouShi'
_symmetry_space_group_name_H-M    'P1'
_cell_length_a                    29.2089005
_cell_length_b                    29.2089005
_cell_length_c                    3.4640999
_cell_angle_alpha                 90.0000000
_cell_angle_beta                  90.0000000
_cell_angle_gamma                 120.0000000
loop_
_atom_site_label
_atom_site_type_symbol
_atom_site_fract_x
_atom_site_fract_y
_atom_site_fract_z
_atom_site_U_iso_or_equiv
_atom_site_adp_type
_atom_site_occupancy
        C1          C  0.3701819  0.5922098  0.5000021    0.00000       Uiso       1.00
        C1          C  0.4077892  0.7779711  0.5000021    0.00000       Uiso       1.00
        C1          C  0.2220279  0.6298170  0.5000021    0.00000       Uiso       1.00
        C1          C  0.6298170  0.4077891  0.5000021    0.00000       Uiso       1.00
        C1          C  0.5922098  0.2220279  0.5000021    0.00000       Uiso       1.00
        C1          C  0.7779711  0.3701819  0.5000021    0.00000       Uiso       1.00
        N1          N  0.4212367  0.6036692  0.5000021    0.00000       Uiso       1.00
        N1          N  0.3963297  0.8175664  0.5000021    0.00000       Uiso       1.00
        N1          N  0.1824325  0.5787623  0.5000021    0.00000       Uiso       1.00
        N1          N  0.5787623  0.3963297  0.5000021    0.00000       Uiso       1.00
        N1          N  0.6036692  0.1824325  0.5000021    0.00000       Uiso       1.00
        N1          N  0.8175665  0.4212367  0.5000021    0.00000       Uiso       1.00
        N1          N  0.4403514  0.5715520  0.5000021    0.00000       Uiso       1.00
        N2          N  0.4284470  0.8687985  0.5000021    0.00000       Uiso       1.00
        N3          N  0.1312005  0.5596475  0.5000021    0.00000       Uiso       1.00
        N4          N  0.5596475  0.4284470  0.5000021    0.00000       Uiso       1.00
        N5          N  0.5715519  0.1312005  0.5000021    0.00000       Uiso       1.00
        N6          N  0.8687984  0.4403515  0.5000021    0.00000       Uiso       1.00
        C1          C  0.4493329  0.4522904  0.5000021    0.00000       Uiso       1.00
        C2          C  0.5477086  0.9970415  0.5000021    0.00000       Uiso       1.00
        C3          C  0.0029575  0.5506660  0.5000021    0.00000       Uiso       1.00
        C4          C  0.5506660  0.5477086  0.5000021    0.00000       Uiso       1.00
        C5          C  0.4522904  0.0029575  0.5000021    0.00000       Uiso       1.00
        C6          C  0.9970415  0.4493329  0.5000021    0.00000       Uiso       1.00
        C7          C  0.4538438  0.5026770  0.5000021    0.00000       Uiso       1.00
        C8          C  0.4973219  0.9511658  0.5000021    0.00000       Uiso       1.00
        C9          C  0.0488332  0.5461552  0.5000021    0.00000       Uiso       1.00
       C10          C  0.5461552  0.4973220  0.5000021    0.00000       Uiso       1.00
       C11          C  0.5026770  0.0488332  0.5000021    0.00000       Uiso       1.00
       C12          C  0.9511658  0.4538438  0.5000021    0.00000       Uiso       1.00
       C13          C  0.5030036  0.5489150  0.5000021    0.00000       Uiso       1.00
       C14          C  0.4510840  0.9540876  0.5000021    0.00000       Uiso       1.00
       C15          C  0.0459114  0.4969954  0.5000021    0.00000       Uiso       1.00
       C16          C  0.4969954  0.4510840  0.5000021    0.00000       Uiso       1.00
       C17          C  0.5489150  0.0459114  0.5000021    0.00000       Uiso       1.00
       C18          C  0.9540876  0.5030036  0.5000021    0.00000       Uiso       1.00
       C19          C  0.4156510  0.5178274  0.5000021    0.00000       Uiso       1.00
       C20          C  0.4821716  0.8978226  0.5000021    0.00000       Uiso       1.00
       C21          C  0.1021764  0.5843480  0.5000021    0.00000       Uiso       1.00
       C22          C  0.5843480  0.4821716  0.5000021    0.00000       Uiso       1.00
       C23          C  0.5178274  0.1021764  0.5000021    0.00000       Uiso       1.00
       C24          C  0.8978226  0.4156510  0.5000021    0.00000       Uiso       1.00
       C25          C  0.4932531  0.5908391  0.5000021    0.00000       Uiso       1.00
       C26          C  0.4091598  0.9024130  0.5000021    0.00000       Uiso       1.00
       C27          C  0.0975860  0.5067459  0.5000021    0.00000       Uiso       1.00
       C28          C  0.5067459  0.4091598  0.5000021    0.00000       Uiso       1.00
       C29          C  0.5908391  0.0975860  0.5000021    0.00000       Uiso       1.00
       C30          C  0.9024129  0.4932531  0.5000021    0.00000       Uiso       1.00
        H1          H  0.6577339  0.4468250  0.5000021    0.00000       Uiso       1.00
        H2          H  0.5531739  0.2109089  0.5000021    0.00000       Uiso       1.00
        H3          H  0.7890900  0.3422650  0.5000021    0.00000       Uiso       1.00
        H4          H  0.3422650  0.5531740  0.5000021    0.00000       Uiso       1.00
        H5          H  0.4468251  0.7890901  0.5000021    0.00000       Uiso       1.00
        H6          H  0.2109089  0.6577340  0.5000021    0.00000       Uiso       1.00
        O1          O  0.6329557  0.5144976  0.5000021    0.00000       Uiso       1.00
        O2          O  0.4855014  0.1184581  0.5000021    0.00000       Uiso       1.00
        O3          O  0.8815408  0.3670433  0.5000021    0.00000       Uiso       1.00
        O4          O  0.3670433  0.4855014  0.5000021    0.00000       Uiso       1.00
        O5          O  0.5144976  0.8815408  0.5000021    0.00000       Uiso       1.00
        O6          O  0.1184581  0.6329557  0.5000021    0.00000       Uiso       1.00
        O7          O  0.4715523  0.3613678  0.5000021    0.00000       Uiso       1.00
        O8          O  0.6386312  0.1101846  0.5000021    0.00000       Uiso       1.00
        O9          O  0.8898144  0.5284466  0.5000021    0.00000       Uiso       1.00
       O10          O  0.5284466  0.6386312  0.5000021    0.00000       Uiso       1.00
       O11          O  0.3613677  0.8898144  0.5000021    0.00000       Uiso       1.00
       O12          O  0.1101846  0.4715523  0.5000021    0.00000       Uiso       1.00
        H7          H  0.4472505  0.6406979  0.5000021    0.00000       Uiso       1.00
        H8          H  0.3593011  0.8065516  0.5000021    0.00000       Uiso       1.00
        H9          H  0.1934474  0.5527484  0.5000021    0.00000       Uiso       1.00
       H10          H  0.5527484  0.3593011  0.5000021    0.00000       Uiso       1.00
       H11          H  0.6406979  0.1934474  0.5000021    0.00000       Uiso       1.00
       H12          H  0.8065516  0.4472505  0.5000021    0.00000       Uiso       1.00
        O1          H  0.5866318  0.5816160  0.5000021    0.00000       Uiso       1.00
        O1          H  0.4183830  0.0050158  0.5000021    0.00000       Uiso       1.00
        O1          H  0.9949831  0.4133672  0.5000021    0.00000       Uiso       1.00
        O1          H  0.4133671  0.4183830  0.5000021    0.00000       Uiso       1.00
        O1          H  0.5816160  0.9949831  0.5000021    0.00000       Uiso       1.00
        O1          H  0.0050158  0.5866318  0.5000021    0.00000       Uiso       1.00
       C49          C  0.6119484  0.3143373  0.5000021    0.00000       Uiso       1.00
       C50          C  0.6471640  0.3699757  0.5000021    0.00000       Uiso       1.00
       C49          C  0.6856616  0.2976110  0.5000021    0.00000       Uiso       1.00
       C50          C  0.6300233  0.2771883  0.5000021    0.00000       Uiso       1.00
       C49          C  0.7023879  0.3880506  0.5000021    0.00000       Uiso       1.00
       C50          C  0.7228107  0.3528350  0.5000021    0.00000       Uiso       1.00
       C49          C  0.3880506  0.6856616  0.5000021    0.00000       Uiso       1.00
       C50          C  0.3528350  0.6300233  0.5000021    0.00000       Uiso       1.00
       C49          C  0.3143373  0.7023879  0.5000021    0.00000       Uiso       1.00
       C50          C  0.3699757  0.7228107  0.5000021    0.00000       Uiso       1.00
       C49          C  0.2976110  0.6119484  0.5000021    0.00000       Uiso       1.00
       C50          C  0.2771883  0.6471640  0.5000021    0.00000       Uiso       1.00
        O7          O  0.5629644  0.2967829  0.5000021    0.00000       Uiso       1.00
        O7          O  0.7032161  0.2661815  0.5000021    0.00000       Uiso       1.00
        O7          O  0.7338175  0.4370346  0.5000021    0.00000       Uiso       1.00
        O7          O  0.4370346  0.7032161  0.5000021    0.00000       Uiso       1.00
        O7          O  0.2967829  0.7338175  0.5000021    0.00000       Uiso       1.00
        O7          O  0.2661815  0.5629644  0.5000021    0.00000       Uiso       1.00
