data_TpBPy
_audit_creation_date              0000-00-00
_audit_creation_method            'LanYouShi'
_symmetry_space_group_name_H-M    'P1'
_cell_length_a                    30.0438004
_cell_length_b                    30.0438004
_cell_length_c                    3.4877000
_cell_angle_alpha                 90.0000000
_cell_angle_beta                  90.0000000
_cell_angle_gamma                 120.0000000
loop_
_atom_site_label
_atom_site_type_symbol
_atom_site_fract_x
_atom_site_fract_y
_atom_site_fract_z
_atom_site_U_iso_or_equiv
_atom_site_adp_type
_atom_site_occupancy
        O1          O  0.3065073  0.5677917  0.0000000    0.00000       Uiso       1.00
        O2          O  0.4322077  0.7387150  0.0000000    0.00000       Uiso       1.00
        O3          O  0.2612844  0.6934921  0.0000000    0.00000       Uiso       1.00
        N1          N  0.4062494  0.5921784  0.0000000    0.00000       Uiso       1.00
        N2          N  0.4078210  0.8140703  0.0000000    0.00000       Uiso       1.00
        N3          N  0.1859290  0.5937500  0.0000000    0.00000       Uiso       1.00
        C1          C  0.3194692  0.6145248  0.0000000    0.00000       Uiso       1.00
        C2          C  0.3854746  0.7049438  0.0000000    0.00000       Uiso       1.00
        C3          C  0.2950556  0.6805302  0.0000000    0.00000       Uiso       1.00
        C4          C  0.4128638  0.6402737  0.0000000    0.00000       Uiso       1.00
        C5          C  0.3597257  0.7725894  0.0000000    0.00000       Uiso       1.00
        C6          C  0.2274099  0.5871356  0.0000000    0.00000       Uiso       1.00
        C7          C  0.4422700  0.5774371  0.0000000    0.00000       Uiso       1.00
        C8          C  0.4225623  0.8648322  0.0000000    0.00000       Uiso       1.00
        C9          C  0.1351672  0.5577294  0.0000000    0.00000       Uiso       1.00
       C10          C  0.4962004  0.6103997  0.0000000    0.00000       Uiso       1.00
       C11          C  0.3895997  0.8858001  0.0000000    0.00000       Uiso       1.00
       C12          C  0.1141993  0.5037990  0.0000000    0.00000       Uiso       1.00
       C13          C  0.5296166  0.5902863  0.0000000    0.00000       Uiso       1.00
       C14          C  0.4097131  0.9393297  0.0000000    0.00000       Uiso       1.00
       C15          C  0.0606697  0.4703828  0.0000000    0.00000       Uiso       1.00
       C16          C  0.5095124  0.5364240  0.0000000    0.00000       Uiso       1.00
       C17          C  0.4635754  0.9730878  0.0000000    0.00000       Uiso       1.00
       C18          C  0.0269116  0.4904869  0.0000000    0.00000       Uiso       1.00
        N4          N  0.4573551  0.5062129  0.0000000    0.00000       Uiso       1.00
        N5          N  0.4937865  0.9511417  0.0000000    0.00000       Uiso       1.00
        N6          N  0.0488578  0.5426443  0.0000000    0.00000       Uiso       1.00
       C19          C  0.4239858  0.5241553  0.0000000    0.00000       Uiso       1.00
       C20          C  0.4758441  0.8998298  0.0000000    0.00000       Uiso       1.00
       C21          C  0.1001695  0.5760136  0.0000000    0.00000       Uiso       1.00
       C22          C  0.3726099  0.6524237  0.0000000    0.00000       Uiso       1.00
       C23          C  0.3475757  0.7201855  0.0000000    0.00000       Uiso       1.00
       C24          C  0.2798139  0.6273896  0.0000000    0.00000       Uiso       1.00
        H1          H  0.4498688  0.6699320  0.0000000    0.00000       Uiso       1.00
        H2          H  0.3300675  0.7799363  0.0000000    0.00000       Uiso       1.00
        H3          H  0.2200632  0.5501306  0.0000000    0.00000       Uiso       1.00
        H4          H  0.5120524  0.6493778  0.0000000    0.00000       Uiso       1.00
        H5          H  0.3506216  0.8626739  0.0000000    0.00000       Uiso       1.00
        H6          H  0.1373254  0.4879470  0.0000000    0.00000       Uiso       1.00
        H7          H  0.3711626  0.5645347  0.0000000    0.00000       Uiso       1.00
        H8          H  0.4354647  0.8066272  0.0000000    0.00000       Uiso       1.00
        H9          H  0.1933722  0.6288368  0.0000000    0.00000       Uiso       1.00
       H10          H  0.3854500  0.4982310  0.0000000    0.00000       Uiso       1.00
       H11          H  0.5017684  0.8872184  0.0000000    0.00000       Uiso       1.00
       H12          H  0.1127810  0.6145495  0.0000000    0.00000       Uiso       1.00
       H13          H  0.5682036  0.6155596  0.0000000    0.00000       Uiso       1.00
       H14          H  0.3844398  0.9526434  0.0000000    0.00000       Uiso       1.00
       H15          H  0.0473560  0.4317958  0.0000000    0.00000       Uiso       1.00
        O4          O  0.7120168  0.4353871  0.0000000    0.00000       Uiso       1.00
        O5          O  0.5646123  0.2766297  0.0000000    0.00000       Uiso       1.00
        O6          O  0.7233697  0.2879826  0.0000000    0.00000       Uiso       1.00
        N7          N  0.6198220  0.4309517  0.0000000    0.00000       Uiso       1.00
        N8          N  0.5690477  0.1888703  0.0000000    0.00000       Uiso       1.00
        N9          N  0.8111291  0.3801774  0.0000000    0.00000       Uiso       1.00
       C25          C  0.6903365  0.3872143  0.0000000    0.00000       Uiso       1.00
       C26          C  0.6127851  0.3031223  0.0000000    0.00000       Uiso       1.00
       C27          C  0.6968771  0.3096628  0.0000000    0.00000       Uiso       1.00
       C28          C  0.6033618  0.3798776  0.0000000    0.00000       Uiso       1.00
       C29          C  0.6201218  0.2234843  0.0000000    0.00000       Uiso       1.00
       C30          C  0.7765151  0.3966375  0.0000000    0.00000       Uiso       1.00
       C31          C  0.5917259  0.4550328  0.0000000    0.00000       Uiso       1.00
       C32          C  0.5449666  0.1366931  0.0000000    0.00000       Uiso       1.00
       C33          C  0.8633062  0.4082734  0.0000000    0.00000       Uiso       1.00
       C34          C  0.5375068  0.4308690  0.0000000    0.00000       Uiso       1.00
       C35          C  0.5691304  0.1066377  0.0000000    0.00000       Uiso       1.00
       C36          C  0.8933617  0.4624926  0.0000000    0.00000       Uiso       1.00
       N10          N  0.5142308  0.4595894  0.0000000    0.00000       Uiso       1.00
       N11          N  0.5404100  0.0546414  0.0000000    0.00000       Uiso       1.00
       N12          N  0.9453580  0.4857686  0.0000000    0.00000       Uiso       1.00
       C37          C  0.5393616  0.5119542  0.0000000    0.00000       Uiso       1.00
       C38          C  0.4880452  0.0274073  0.0000000    0.00000       Uiso       1.00
       C39          C  0.9725921  0.4606378  0.0000000    0.00000       Uiso       1.00
       C40          C  0.5937648  0.5376831  0.0000000    0.00000       Uiso       1.00
       C41          C  0.4623164  0.0560818  0.0000000    0.00000       Uiso       1.00
       C42          C  0.9439176  0.4062346  0.0000000    0.00000       Uiso       1.00
       C43          C  0.6193419  0.5092269  0.0000000    0.00000       Uiso       1.00
       C44          C  0.4907725  0.1101150  0.0000000    0.00000       Uiso       1.00
       C45          C  0.8898844  0.3806575  0.0000000    0.00000       Uiso       1.00
       C46          C  0.6356714  0.3576389  0.0000000    0.00000       Uiso       1.00
       C47          C  0.6423606  0.2780325  0.0000000    0.00000       Uiso       1.00
       C48          C  0.7219669  0.3643280  0.0000000    0.00000       Uiso       1.00
       H16          H  0.5645618  0.3557193  0.0000000    0.00000       Uiso       1.00
       H17          H  0.6442801  0.2088425  0.0000000    0.00000       Uiso       1.00
       H18          H  0.7911569  0.4354376  0.0000000    0.00000       Uiso       1.00
       H19          H  0.5146977  0.3919068  0.0000000    0.00000       Uiso       1.00
       H20          H  0.6080925  0.1227908  0.0000000    0.00000       Uiso       1.00
       H21          H  0.8772086  0.4853018  0.0000000    0.00000       Uiso       1.00
       H22          H  0.6564972  0.4533578  0.0000000    0.00000       Uiso       1.00
       H23          H  0.5466415  0.2031393  0.0000000    0.00000       Uiso       1.00
       H24          H  0.7968601  0.3435022  0.0000000    0.00000       Uiso       1.00
       H25          H  0.6586939  0.5286259  0.0000000    0.00000       Uiso       1.00
       H26          H  0.4713735  0.1300680  0.0000000    0.00000       Uiso       1.00
       H27          H  0.8699314  0.3413055  0.0000000    0.00000       Uiso       1.00
       H28          H  0.6155182  0.5767972  0.0000000    0.00000       Uiso       1.00
       H29          H  0.4232022  0.0387210  0.0000000    0.00000       Uiso       1.00
       H30          H  0.9612784  0.3844813  0.0000000    0.00000       Uiso       1.00
