data_TpPa-F4-ff
_audit_creation_date              0000-00-00
_audit_creation_method            'LanYouShi'
_symmetry_space_group_name_H-M    'P1'
_cell_length_a                    22.1200008
_cell_length_b                    22.1200008
_cell_length_c                    3.2800000
_cell_angle_alpha                 90.0000000
_cell_angle_beta                  90.0000000
_cell_angle_gamma                 120.0000000
loop_
_atom_site_label
_atom_site_type_symbol
_atom_site_fract_x
_atom_site_fract_y
_atom_site_fract_z
_atom_site_U_iso_or_equiv
_atom_site_adp_type
_atom_site_occupancy
        F1          F  0.4283100  0.3566000  0.0000000    0.00000       Uiso       1.00
        F2          F  0.3577700  0.4260300  0.0000000    0.00000       Uiso       1.00
        O1          O  0.7039499  0.4709300  0.0000000    0.00000       Uiso       1.00
        N1          N  0.5796700  0.4356200  0.0000000    0.00000       Uiso       1.00
        C1          C  0.6859700  0.4065300  0.0000000    0.00000       Uiso       1.00
        C2          C  0.6137900  0.3521500  0.0000000    0.00000       Uiso       1.00
        C3          C  0.5612000  0.3683900  0.0000000    0.00000       Uiso       1.00
        C4          C  0.5379000  0.4643200  0.0000000    0.00000       Uiso       1.00
        C5          C  0.4281200  0.4623900  0.0000000    0.00000       Uiso       1.00
        C6          C  0.4646500  0.4272800  0.0000000    0.00000       Uiso       1.00
        H1          H  0.6223412  0.4759871  0.0000000    0.00000       Uiso       1.00
        H2          H  0.5078343  0.3272519  0.0000000    0.00000       Uiso       1.00
        F3          F  0.6434000  0.0717100  0.0000000    0.00000       Uiso       1.00
        F4          F  0.5739700  0.9317399  0.0000000    0.00000       Uiso       1.00
        O2          O  0.5290700  0.2330200  0.0000000    0.00000       Uiso       1.00
        N2          N  0.5643799  0.1440500  0.0000000    0.00000       Uiso       1.00
        C7          C  0.5934700  0.2794400  0.0000000    0.00000       Uiso       1.00
        C8          C  0.6478500  0.2616400  0.0000000    0.00000       Uiso       1.00
        C9          C  0.6316100  0.1928100  0.0000000    0.00000       Uiso       1.00
       C10          C  0.5356800  0.0735800  0.0000000    0.00000       Uiso       1.00
       C11          C  0.5376099  0.9657300  0.0000000    0.00000       Uiso       1.00
       C12          C  0.5727199  0.0373700  0.0000000    0.00000       Uiso       1.00
        H3          H  0.5240129  0.1463541  0.0000000    0.00000       Uiso       1.00
        H4          H  0.6727481  0.1805824  0.0000000    0.00000       Uiso       1.00
        F5          F  0.9282899  0.5716900  0.0000000    0.00000       Uiso       1.00
        F6          F  0.0682600  0.6422300  0.0000000    0.00000       Uiso       1.00
        O3          O  0.7669800  0.2960500  0.0000000    0.00000       Uiso       1.00
        N3          N  0.8559499  0.4203300  0.0000000    0.00000       Uiso       1.00
       C13          C  0.7205600  0.3140300  0.0000000    0.00000       Uiso       1.00
       C14          C  0.7383600  0.3862100  0.0000000    0.00000       Uiso       1.00
       C15          C  0.8071899  0.4387999  0.0000000    0.00000       Uiso       1.00
       C16          C  0.9264200  0.4621000  0.0000000    0.00000       Uiso       1.00
       C17          C  0.0342700  0.5718800  0.0000000    0.00000       Uiso       1.00
       C18          C  0.9626300  0.5353500  0.0000000    0.00000       Uiso       1.00
        H5          H  0.8536459  0.3776587  0.0000000    0.00000       Uiso       1.00
        H6          H  0.8194175  0.4921657  0.0000000    0.00000       Uiso       1.00
        F7          F  0.5716900  0.6434000  0.0000000    0.00000       Uiso       1.00
        F8          F  0.6422300  0.5739700  0.0000000    0.00000       Uiso       1.00
        O4          O  0.2960500  0.5290700  0.0000000    0.00000       Uiso       1.00
        N4          N  0.4203300  0.5643799  0.0000000    0.00000       Uiso       1.00
       C19          C  0.3140300  0.5934700  0.0000000    0.00000       Uiso       1.00
       C20          C  0.3862100  0.6478500  0.0000000    0.00000       Uiso       1.00
       C21          C  0.4387999  0.6316100  0.0000000    0.00000       Uiso       1.00
       C22          C  0.4621000  0.5356800  0.0000000    0.00000       Uiso       1.00
       C23          C  0.5718800  0.5376100  0.0000000    0.00000       Uiso       1.00
       C24          C  0.5353500  0.5727200  0.0000000    0.00000       Uiso       1.00
        H7          H  0.3776588  0.5240129  0.0000000    0.00000       Uiso       1.00
        H8          H  0.4921656  0.6727480  0.0000000    0.00000       Uiso       1.00
        F9          F  0.3566000  0.9282899  0.0000000    0.00000       Uiso       1.00
       F10          F  0.4260300  0.0682600  0.0000000    0.00000       Uiso       1.00
        O5          O  0.4709300  0.7669800  0.0000000    0.00000       Uiso       1.00
        N5          N  0.4356200  0.8559499  0.0000000    0.00000       Uiso       1.00
       C25          C  0.4065300  0.7205600  0.0000000    0.00000       Uiso       1.00
       C26          C  0.3521500  0.7383600  0.0000000    0.00000       Uiso       1.00
       C27          C  0.3683900  0.8071899  0.0000000    0.00000       Uiso       1.00
       C28          C  0.4643200  0.9264200  0.0000000    0.00000       Uiso       1.00
       C29          C  0.4623900  0.0342700  0.0000000    0.00000       Uiso       1.00
       C30          C  0.4272800  0.9626300  0.0000000    0.00000       Uiso       1.00
        H9          H  0.4759871  0.8536459  0.0000000    0.00000       Uiso       1.00
       H10          H  0.3272519  0.8194175  0.0000000    0.00000       Uiso       1.00
       F11          F  0.0717100  0.4283100  0.0000000    0.00000       Uiso       1.00
       F12          F  0.9317399  0.3577700  0.0000000    0.00000       Uiso       1.00
        O6          O  0.2330200  0.7039500  0.0000000    0.00000       Uiso       1.00
        N6          N  0.1440500  0.5796700  0.0000000    0.00000       Uiso       1.00
       C31          C  0.2794400  0.6859699  0.0000000    0.00000       Uiso       1.00
       C32          C  0.2616400  0.6137900  0.0000000    0.00000       Uiso       1.00
       C33          C  0.1928100  0.5612000  0.0000000    0.00000       Uiso       1.00
       C34          C  0.0735800  0.5378999  0.0000000    0.00000       Uiso       1.00
       C35          C  0.9657300  0.4281200  0.0000000    0.00000       Uiso       1.00
       C36          C  0.0373700  0.4646500  0.0000000    0.00000       Uiso       1.00
       H11          H  0.1463541  0.6223413  0.0000000    0.00000       Uiso       1.00
       H12          H  0.1805824  0.5078343  0.0000000    0.00000       Uiso       1.00
