data_TpPa-Py
_audit_creation_date              0000-00-00
_audit_creation_method            'LanYouShi'
_symmetry_space_group_name_H-M    'P1'
_cell_length_a                    22.6994991
_cell_length_b                    3.4804001
_cell_length_c                    22.8257008
_cell_angle_alpha                 90.0000000
_cell_angle_beta                  120.3974991
_cell_angle_gamma                 90.0000000
loop_
_atom_site_label
_atom_site_type_symbol
_atom_site_fract_x
_atom_site_fract_y
_atom_site_fract_z
_atom_site_U_iso_or_equiv
_atom_site_adp_type
_atom_site_occupancy
        O1          O  0.5309600  0.5000000  0.2806100    0.00000       Uiso       1.00
        N2          N  0.5449700  0.5000000  0.4052300    0.00000       Uiso       1.00
        C3          C  0.5946200  0.5000000  0.3061000    0.00000       Uiso       1.00
        C4          C  0.6375100  0.5000000  0.3780400    0.00000       Uiso       1.00
        C5          C  0.6119000  0.5000000  0.4236800    0.00000       Uiso       1.00
        C6          C  0.5188800  0.5000000  0.4470400    0.00000       Uiso       1.00
        C7          C  0.4474100  0.5000000  0.4178100    0.00000       Uiso       1.00
        N8          N  0.5585500  0.5000000  0.5159500    0.00000       Uiso       1.00
        H9          H  0.4159600  0.5000000  0.3661700    0.00000       Uiso       1.00
       H10          H  0.6461300  0.5000000  0.4747800    0.00000       Uiso       1.00
       H11          H  0.5122400  0.5000000  0.3573000    0.00000       Uiso       1.00
       O12          O  0.7476800  0.5000000  0.4681000    0.00000       Uiso       1.00
       N13          N  0.8594300  0.5000000  0.4550000    0.00000       Uiso       1.00
       C14          C  0.7093900  0.5000000  0.4047200    0.00000       Uiso       1.00
       C15          C  0.7387400  0.5000000  0.3624000    0.00000       Uiso       1.00
       C16          C  0.8106200  0.5000000  0.3883100    0.00000       Uiso       1.00
       C17          C  0.9279400  0.5000000  0.4814100    0.00000       Uiso       1.00
       C18          C  0.9704500  0.5000000  0.5525400    0.00000       Uiso       1.00
       N19          N  0.9575400  0.5000000  0.4423800    0.00000       Uiso       1.00
       H20          H  0.9500101  0.5000000  0.5835200    0.00000       Uiso       1.00
       H21          H  0.8276800  0.5000000  0.3545300    0.00000       Uiso       1.00
       H22          H  0.8439800  0.5000000  0.4872600    0.00000       Uiso       1.00
       O23          O  0.7184600  0.5000000  0.2529000    0.00000       Uiso       1.00
       N24          N  0.5918000  0.5000000  0.1408100    0.00000       Uiso       1.00
       C25          C  0.6932700  0.5000000  0.2908000    0.00000       Uiso       1.00
       C26          C  0.6210000  0.5000000  0.2612100    0.00000       Uiso       1.00
       C27          C  0.5745100  0.5000000  0.1896800    0.00000       Uiso       1.00
       C28          C  0.5500700  0.5000000  0.0721700    0.00000       Uiso       1.00
       C29          C  0.5816100  0.5000000  0.0324100    0.00000       Uiso       1.00
       C30          C  0.4777900  0.5000000  0.0369800    0.00000       Uiso       1.00
       H31          H  0.6337600  0.5000000  0.0553500    0.00000       Uiso       1.00
       H32          H  0.5235900  0.5000000  0.1733000    0.00000       Uiso       1.00
       H33          H  0.4509700  0.5000000  0.0617200    0.00000       Uiso       1.00
       H34          H  0.6400100  0.5000000  0.1567400    0.00000       Uiso       1.00
       O35          O  0.4677400  0.5000000  0.7078400    0.00000       Uiso       1.00
       N36          N  0.4399900  0.5000000  0.5775300    0.00000       Uiso       1.00
       C37          C  0.4051000  0.5000000  0.6881100    0.00000       Uiso       1.00
       C38          C  0.3566200  0.5000000  0.6172000    0.00000       Uiso       1.00
       C39          C  0.3752500  0.5000000  0.5661400    0.00000       Uiso       1.00
       C40          C  0.4614600  0.5000000  0.5316899    0.00000       Uiso       1.00
       C41          C  0.5327000  0.5000000  0.5580900    0.00000       Uiso       1.00
       C42          C  0.4189900  0.5000000  0.4600700    0.00000       Uiso       1.00
       H43          H  0.5660100  0.5000000  0.6093400    0.00000       Uiso       1.00
       H44          H  0.3369600  0.5000000  0.5166200    0.00000       Uiso       1.00
       H45          H  0.3670700  0.5000000  0.4374900    0.00000       Uiso       1.00
       H46          H  0.4757200  0.5000000  0.6244700    0.00000       Uiso       1.00
       O47          O  0.2428100  0.5000000  0.5347800    0.00000       Uiso       1.00
       N48          N  0.1392100  0.5000000  0.5612700    0.00000       Uiso       1.00
       C49          C  0.2861100  0.5000000  0.5971400    0.00000       Uiso       1.00
       C50          C  0.2633500  0.5000000  0.6449000    0.00000       Uiso       1.00
       C51          C  0.1929800  0.5000000  0.6258300    0.00000       Uiso       1.00
       C52          C  0.0712900  0.5000000  0.5394700    0.00000       Uiso       1.00
       C53          C  0.0261500  0.5000000  0.4685400    0.00000       Uiso       1.00
       C54          C  0.0417800  0.5000000  0.5812800    0.00000       Uiso       1.00
       H55          H  0.0443200  0.5000000  0.4357000    0.00000       Uiso       1.00
       H56          H  0.1815300  0.5000000  0.6636200    0.00000       Uiso       1.00
       H57          H  0.0713000  0.5000000  0.6329400    0.00000       Uiso       1.00
       H58          H  0.1505700  0.5000000  0.5259600    0.00000       Uiso       1.00
       O59          O  0.2946000  0.5000000  0.7576100    0.00000       Uiso       1.00
       N60          N  0.4252000  0.5000000  0.8610400    0.00000       Uiso       1.00
       C61          C  0.3142100  0.5000000  0.7151099    0.00000       Uiso       1.00
       C62          C  0.3854600  0.5000000  0.7383100    0.00000       Uiso       1.00
       C63          C  0.4370500  0.5000000  0.8084800    0.00000       Uiso       1.00
       C64          C  0.4704900  0.5000000  0.9286799    0.00000       Uiso       1.00
       N65          N  0.4416400  0.5000000  0.9681799    0.00000       Uiso       1.00
       C66          C  0.5425300  0.5000000  0.9609800    0.00000       Uiso       1.00
       H67          H  0.4869800  0.5000000  0.8207800    0.00000       Uiso       1.00
       H68          H  0.5669800  0.5000000  0.9338099    0.00000       Uiso       1.00
       H69          H  0.3779900  0.5000000  0.8488899    0.00000       Uiso       1.00
