data_TpPa-SO3H-Py
_audit_creation_date              0000-00-00
_audit_creation_method            'LanYouShi'
_symmetry_space_group_name_H-M    'P1'
_cell_length_a                    3.3000000
_cell_length_b                    46.5646019
_cell_length_c                    46.5646019
_cell_angle_alpha                 60.0000000
_cell_angle_beta                  90.0000000
_cell_angle_gamma                 90.0000000
loop_
_atom_site_label
_atom_site_type_symbol
_atom_site_fract_x
_atom_site_fract_y
_atom_site_fract_z
_atom_site_U_iso_or_equiv
_atom_site_adp_type
_atom_site_occupancy
        C1          C -0.6123778  0.3070422 -0.0993989    0.00000       Uiso       1.00
        C1          C -0.6123778  0.1929783  0.0994129    0.00000       Uiso       1.00
        C1          C -0.6123778  0.4006042 -0.2076190    0.00000       Uiso       1.00
        C1          C -0.6123778  0.0994163  0.2076329    0.00000       Uiso       1.00
        C1          C -0.6123778  0.2923842 -0.1929609    0.00000       Uiso       1.00
        C1          C -0.6123778  0.2076363  0.1929749    0.00000       Uiso       1.00
        C1          C -0.6123778  0.3070422  0.4006008    0.00000       Uiso       1.00
        C1          C -0.6123778  0.1929783  0.5994126    0.00000       Uiso       1.00
        C1          C -0.6123778  0.4006042  0.2923808    0.00000       Uiso       1.00
        C1          C -0.6123778  0.0994163  0.7076327    0.00000       Uiso       1.00
        C1          C -0.6123778  0.2923842  0.3070388    0.00000       Uiso       1.00
        C1          C -0.6123778  0.2076364  0.6929746    0.00000       Uiso       1.00
        C1          C -0.6123778  0.8070420 -0.5993987    0.00000       Uiso       1.00
        C1          C -0.6123778  0.6929780 -0.4005868    0.00000       Uiso       1.00
        C1          C -0.6123778  0.9006040 -0.7076187    0.00000       Uiso       1.00
        C1          C -0.6123778  0.5994160 -0.2923668    0.00000       Uiso       1.00
        C1          C -0.6123778  0.7923839 -0.6929606    0.00000       Uiso       1.00
        C1          C -0.6123778  0.7076361 -0.3070249    0.00000       Uiso       1.00
        C1          C -0.6123778  0.8070420 -0.0993989    0.00000       Uiso       1.00
        C1          C -0.6123778  0.6929780  0.0994129    0.00000       Uiso       1.00
        C1          C -0.6123778  0.9006040 -0.2076190    0.00000       Uiso       1.00
        C1          C -0.6123778  0.5994161  0.2076329    0.00000       Uiso       1.00
        C1          C -0.6123778  0.7923839 -0.1929609    0.00000       Uiso       1.00
        C1          C -0.6123778  0.7076361  0.1929749    0.00000       Uiso       1.00
        N1          N -0.6123778  0.2707605 -0.0732907    0.00000       Uiso       1.00
        N1          N -0.6123778  0.2292600  0.0733047    0.00000       Uiso       1.00
        N1          N -0.6123778  0.4267125 -0.1974454    0.00000       Uiso       1.00
        N1          N -0.6123778  0.0733081  0.1974594    0.00000       Uiso       1.00
        N1          N -0.6123778  0.3025577 -0.2292427    0.00000       Uiso       1.00
        N1          N -0.6123778  0.1974628  0.2292566    0.00000       Uiso       1.00
        N1          N -0.6123778  0.2707605  0.4267090    0.00000       Uiso       1.00
        N1          N -0.6123778  0.2292601  0.5733044    0.00000       Uiso       1.00
        N1          N -0.6123778  0.4267124  0.3025543    0.00000       Uiso       1.00
        N1          N -0.6123778  0.0733081  0.6974591    0.00000       Uiso       1.00
        N1          N -0.6123778  0.3025577  0.2707571    0.00000       Uiso       1.00
        N1          N -0.6123778  0.1974628  0.7292563    0.00000       Uiso       1.00
        N1          N -0.6123778  0.7707602 -0.5732905    0.00000       Uiso       1.00
        N1          N -0.6123778  0.7292598 -0.4266950    0.00000       Uiso       1.00
        N1          N -0.6123778  0.9267122 -0.6974451    0.00000       Uiso       1.00
        N1          N -0.6123778  0.5733078 -0.3025403    0.00000       Uiso       1.00
        N1          N -0.6123778  0.8025575 -0.7292424    0.00000       Uiso       1.00
        N1          N -0.6123778  0.6974625 -0.2707431    0.00000       Uiso       1.00
        N1          N -0.6123778  0.7707602 -0.0732907    0.00000       Uiso       1.00
        N1          N -0.6123778  0.7292597  0.0733047    0.00000       Uiso       1.00
        N1          N -0.6123778  0.9267122 -0.1974454    0.00000       Uiso       1.00
        N1          N -0.6123778  0.5733078  0.1974594    0.00000       Uiso       1.00
        N1          N -0.6123778  0.8025575 -0.2292427    0.00000       Uiso       1.00
        N1          N -0.6123778  0.6974625  0.2292566    0.00000       Uiso       1.00
        C1          C -0.6123778  0.2605550 -0.0370116    0.00000       Uiso       1.00
        C2          C -0.6123778  0.2394655  0.0370256    0.00000       Uiso       1.00
        C3          C -0.6123778  0.4629915 -0.2235190    0.00000       Uiso       1.00
        C4          C -0.6123778  0.0370290  0.2235330    0.00000       Uiso       1.00
        C5          C -0.6123778  0.2764841 -0.2394481    0.00000       Uiso       1.00
        C6          C -0.6123778  0.2235364  0.2394621    0.00000       Uiso       1.00
        C7          C -0.6123778  0.2605550  0.4629881    0.00000       Uiso       1.00
        C8          C -0.6123778  0.2394655  0.5370253    0.00000       Uiso       1.00
        C9          C -0.6123778  0.4629915  0.2764807    0.00000       Uiso       1.00
       C10          C -0.6123778  0.0370290  0.7235327    0.00000       Uiso       1.00
       C11          C -0.6123778  0.2764841  0.2605516    0.00000       Uiso       1.00
       C12          C -0.6123778  0.2235364  0.7394618    0.00000       Uiso       1.00
       C13          C -0.6123778  0.7605548 -0.5370114    0.00000       Uiso       1.00
       C14          C -0.6123778  0.7394652 -0.4629741    0.00000       Uiso       1.00
       C15          C -0.6123778  0.9629912 -0.7235187    0.00000       Uiso       1.00
       C16          C -0.6123778  0.5370287 -0.2764667    0.00000       Uiso       1.00
       C17          C -0.6123778  0.7764839 -0.7394478    0.00000       Uiso       1.00
       C18          C -0.6123778  0.7235361 -0.2605377    0.00000       Uiso       1.00
       C19          C -0.6123778  0.7605548 -0.0370116    0.00000       Uiso       1.00
       C20          C -0.6123778  0.7394652  0.0370256    0.00000       Uiso       1.00
       C21          C -0.6123778  0.9629913 -0.2235190    0.00000       Uiso       1.00
       C22          C -0.6123778  0.5370288  0.2235330    0.00000       Uiso       1.00
       C23          C -0.6123778  0.7764838 -0.2394481    0.00000       Uiso       1.00
       C24          C -0.6123778  0.7235361  0.2394621    0.00000       Uiso       1.00
       C25          C -0.6123778  0.2234937 -0.0105466    0.00000       Uiso       1.00
       C26          C -0.6123778  0.2765269  0.0105606    0.00000       Uiso       1.00
        N1          N -0.6123778  0.4894565 -0.2129227    0.00000       Uiso       1.00
       C27          C -0.6123778  0.0105640  0.2129366    0.00000       Uiso       1.00
        N2          N -0.6123778  0.2870805 -0.2765095    0.00000       Uiso       1.00
       C28          C -0.6123778  0.2129400  0.2765235    0.00000       Uiso       1.00
        N3          N -0.6123778  0.2234937  0.4894531    0.00000       Uiso       1.00
       C29          C -0.6123778  0.2765269  0.5105603    0.00000       Uiso       1.00
       C30          C -0.6123778  0.4894566  0.2870771    0.00000       Uiso       1.00
       C31          C -0.6123778  0.0105640  0.7129364    0.00000       Uiso       1.00
        N4          N -0.6123778  0.2870805  0.2234902    0.00000       Uiso       1.00
       C32          C -0.6123778  0.2129401  0.7765232    0.00000       Uiso       1.00
        N5          N -0.6123778  0.7234934 -0.5105463    0.00000       Uiso       1.00
       C33          C -0.6123778  0.7765266 -0.4894392    0.00000       Uiso       1.00
       C34          C -0.6123778  0.9894563 -0.7129224    0.00000       Uiso       1.00
       C35          C -0.6123778  0.5105637 -0.2870631    0.00000       Uiso       1.00
        N6          N -0.6123778  0.7870802 -0.7765092    0.00000       Uiso       1.00
       C36          C -0.6123778  0.7129398 -0.2234763    0.00000       Uiso       1.00
        N7          N -0.6123778  0.7234933 -0.0105466    0.00000       Uiso       1.00
       C37          C -0.6123778  0.7765266  0.0105606    0.00000       Uiso       1.00
        N8          N -0.6123778  0.9894562 -0.2129227    0.00000       Uiso       1.00
       C38          C -0.6123778  0.5105637  0.2129366    0.00000       Uiso       1.00
       C39          C -0.6123778  0.7870802 -0.2765095    0.00000       Uiso       1.00
       C40          C -0.6123778  0.7129398  0.2765235    0.00000       Uiso       1.00
       C41          C -0.6123778  0.2129456  0.0265028    0.00000       Uiso       1.00
       C42          C -0.6123778  0.2870749 -0.0264888    0.00000       Uiso       1.00
       C43          C -0.6123778  0.0265062  0.2605757    0.00000       Uiso       1.00
       C44          C -0.6123778  0.4735143 -0.2605617    0.00000       Uiso       1.00
       C45          C -0.6123778  0.2605791  0.2129422    0.00000       Uiso       1.00
       C46          C -0.6123778  0.2394415 -0.2129283    0.00000       Uiso       1.00
       C47          C -0.6123778  0.2129457  0.5265025    0.00000       Uiso       1.00
       C48          C -0.6123778  0.2870749  0.4735109    0.00000       Uiso       1.00
       C49          C -0.6123778  0.0265062  0.7605754    0.00000       Uiso       1.00
       C50          C -0.6123778  0.4735143  0.2394380    0.00000       Uiso       1.00
       C51          C -0.6123778  0.2605791  0.7129419    0.00000       Uiso       1.00
       C52          C -0.6123778  0.2394415  0.2870715    0.00000       Uiso       1.00
       C53          C -0.6123778  0.7129454 -0.4734969    0.00000       Uiso       1.00
       C54          C -0.6123778  0.7870746 -0.5264885    0.00000       Uiso       1.00
       C55          C -0.6123778  0.5265059 -0.2394241    0.00000       Uiso       1.00
       C56          C -0.6123778  0.9735141 -0.7605614    0.00000       Uiso       1.00
       C57          C -0.6123778  0.7605788 -0.2870575    0.00000       Uiso       1.00
       C58          C -0.6123778  0.7394412 -0.7129279    0.00000       Uiso       1.00
       C59          C -0.6123778  0.7129453  0.0265028    0.00000       Uiso       1.00
       C60          C -0.6123778  0.7870746 -0.0264888    0.00000       Uiso       1.00
       C61          C -0.6123778  0.5265059  0.2605757    0.00000       Uiso       1.00
       C62          C -0.6123778  0.9735140 -0.2605617    0.00000       Uiso       1.00
       C63          C -0.6123778  0.7605788  0.2129422    0.00000       Uiso       1.00
       C64          C -0.6123778  0.7394412 -0.2129283    0.00000       Uiso       1.00
        H1          H -0.6123778  0.3267456 -0.0917022    0.00000       Uiso       1.00
        H2          H -0.6123778  0.1732750  0.0917162    0.00000       Uiso       1.00
        H3          H -0.6123778  0.4083009 -0.2350190    0.00000       Uiso       1.00
        H4          H -0.6123778  0.0917196  0.2350329    0.00000       Uiso       1.00
        H5          H -0.6123778  0.2649842 -0.1732576    0.00000       Uiso       1.00
        H6          H -0.6123778  0.2350364  0.1732716    0.00000       Uiso       1.00
        H7          H -0.6123778  0.3267456  0.4082975    0.00000       Uiso       1.00
        H8          H -0.6123778  0.1732750  0.5917159    0.00000       Uiso       1.00
        H9          H -0.6123778  0.4083009  0.2649808    0.00000       Uiso       1.00
       H10          H -0.6123778  0.0917196  0.7350327    0.00000       Uiso       1.00
       H11          H -0.6123778  0.2649842  0.3267421    0.00000       Uiso       1.00
       H12          H -0.6123778  0.2350364  0.6732712    0.00000       Uiso       1.00
       H13          H -0.6123778  0.8267453 -0.5917020    0.00000       Uiso       1.00
       H14          H -0.6123778  0.6732747 -0.4082835    0.00000       Uiso       1.00
       H15          H -0.6123778  0.9083006 -0.7350187    0.00000       Uiso       1.00
       H16          H -0.6123778  0.5917194 -0.2649668    0.00000       Uiso       1.00
       H17          H -0.6123778  0.7649839 -0.6732573    0.00000       Uiso       1.00
       H18          H -0.6123778  0.7350361 -0.3267282    0.00000       Uiso       1.00
       H19          H -0.6123778  0.8267453 -0.0917022    0.00000       Uiso       1.00
       H20          H -0.6123778  0.6732747  0.0917162    0.00000       Uiso       1.00
       H21          H -0.6123778  0.9083006 -0.2350190    0.00000       Uiso       1.00
       H22          H -0.6123778  0.5917193  0.2350329    0.00000       Uiso       1.00
       H23          H -0.6123778  0.7649839 -0.1732576    0.00000       Uiso       1.00
       H24          H -0.6123778  0.7350361  0.1732716    0.00000       Uiso       1.00
       H25          H -0.6123778  0.2960611  0.0183828    0.00000       Uiso       1.00
       H26          H -0.6123778  0.0183862  0.1855803    0.00000       Uiso       1.00
       H27          H -0.6123778  0.1855837  0.2960577    0.00000       Uiso       1.00
       H28          H -0.6123778  0.2960611  0.5183825    0.00000       Uiso       1.00
       H29          H -0.6123778  0.0183862  0.6855800    0.00000       Uiso       1.00
       H30          H -0.6123778  0.1855837  0.7960574    0.00000       Uiso       1.00
       H31          H -0.6123778  0.7960608 -0.4816169    0.00000       Uiso       1.00
       H32          H -0.6123778  0.5183859 -0.3144195    0.00000       Uiso       1.00
       H33          H -0.6123778  0.6855834 -0.2039421    0.00000       Uiso       1.00
       H34          H -0.6123778  0.7960608  0.0183828    0.00000       Uiso       1.00
       H35          H -0.6123778  0.5183859  0.1855803    0.00000       Uiso       1.00
       H36          H -0.6123778  0.6855834  0.2960577    0.00000       Uiso       1.00
       H37          H -0.6123778  0.1854804  0.0461451    0.00000       Uiso       1.00
       H38          H -0.6123778  0.3145401 -0.0461312    0.00000       Uiso       1.00
       H39          H -0.6123778  0.0461486  0.2683985    0.00000       Uiso       1.00
       H40          H -0.6123778  0.4538720 -0.2683845    0.00000       Uiso       1.00
       H41          H -0.6123778  0.2684019  0.1854770    0.00000       Uiso       1.00
       H42          H -0.6123778  0.2316186 -0.1854631    0.00000       Uiso       1.00
       H43          H -0.6123778  0.1854805  0.5461449    0.00000       Uiso       1.00
       H44          H -0.6123778  0.3145401  0.4538685    0.00000       Uiso       1.00
       H45          H -0.6123778  0.0461486  0.7683982    0.00000       Uiso       1.00
       H46          H -0.6123778  0.4538719  0.2316152    0.00000       Uiso       1.00
       H47          H -0.6123778  0.2684019  0.6854768    0.00000       Uiso       1.00
       H48          H -0.6123778  0.2316186  0.3145367    0.00000       Uiso       1.00
       H49          H -0.6123778  0.6854802 -0.4538546    0.00000       Uiso       1.00
       H50          H -0.6123778  0.8145398 -0.5461309    0.00000       Uiso       1.00
       H51          H -0.6123778  0.5461483 -0.2316012    0.00000       Uiso       1.00
       H52          H -0.6123778  0.9538717 -0.7683843    0.00000       Uiso       1.00
       H53          H -0.6123778  0.7684016 -0.3145227    0.00000       Uiso       1.00
       H54          H -0.6123778  0.7316183 -0.6854628    0.00000       Uiso       1.00
       H55          H -0.6123778  0.6854802  0.0461451    0.00000       Uiso       1.00
       H56          H -0.6123778  0.8145398 -0.0461312    0.00000       Uiso       1.00
       H57          H -0.6123778  0.5461483  0.2683985    0.00000       Uiso       1.00
       H58          H -0.6123778  0.9538717 -0.2683845    0.00000       Uiso       1.00
       H59          H -0.6123778  0.7684016  0.1854770    0.00000       Uiso       1.00
       H60          H -0.6123778  0.7316183 -0.1854631    0.00000       Uiso       1.00
       H61          H -0.6123778  0.2484468  0.0807841    0.00000       Uiso       1.00
       H62          H -0.6123778  0.2515738 -0.0807701    0.00000       Uiso       1.00
       H63          H -0.6123778  0.0807875  0.1707932    0.00000       Uiso       1.00
       H64          H -0.6123778  0.4192330 -0.1707793    0.00000       Uiso       1.00
       H65          H -0.6123778  0.1707966  0.2484434    0.00000       Uiso       1.00
       H66          H -0.6123778  0.3292239 -0.2484294    0.00000       Uiso       1.00
       H67          H -0.6123778  0.2484468  0.5807838    0.00000       Uiso       1.00
       H68          H -0.6123778  0.2515737  0.4192296    0.00000       Uiso       1.00
       H69          H -0.6123778  0.0807875  0.6707929    0.00000       Uiso       1.00
       H70          H -0.6123778  0.4192330  0.3292205    0.00000       Uiso       1.00
       H71          H -0.6123778  0.1707966  0.7484431    0.00000       Uiso       1.00
       H72          H -0.6123778  0.3292239  0.2515703    0.00000       Uiso       1.00
       H73          H -0.6123778  0.7484465 -0.4192156    0.00000       Uiso       1.00
       H74          H -0.6123778  0.7515735 -0.5807699    0.00000       Uiso       1.00
       H75          H -0.6123778  0.5807872 -0.3292065    0.00000       Uiso       1.00
       H76          H -0.6123778  0.9192327 -0.6707790    0.00000       Uiso       1.00
       H77          H -0.6123778  0.6707964 -0.2515564    0.00000       Uiso       1.00
       H78          H -0.6123778  0.8292236 -0.7484291    0.00000       Uiso       1.00
       H79          H -0.6123778  0.7484465  0.0807841    0.00000       Uiso       1.00
       H80          H -0.6123778  0.7515735 -0.0807701    0.00000       Uiso       1.00
       H81          H -0.6123778  0.5807872  0.1707932    0.00000       Uiso       1.00
       H82          H -0.6123778  0.9192327 -0.1707793    0.00000       Uiso       1.00
       H83          H -0.6123778  0.6707964  0.2484434    0.00000       Uiso       1.00
       H84          H -0.6123778  0.8292236 -0.2484294    0.00000       Uiso       1.00
        S1          S -0.6123778  0.1923800 -0.0230056    0.00000       Uiso       1.00
        O1          O -0.6123778  0.1600825  0.0058219    0.00000       Uiso       1.00
        O2          O -0.2880915  0.1962628 -0.0423616    0.00000       Uiso       1.00
        O3          O -0.9615867  0.1965602 -0.0438522    0.00000       Uiso       1.00
       H85          H -0.9617154  0.1800741 -0.0504818    0.00000       Uiso       1.00
        S2          S -0.6123778  0.4769975  0.3306498    0.00000       Uiso       1.00
        O4          O -0.2880915  0.4576415  0.3461230    0.00000       Uiso       1.00
        O5          O -0.9615867  0.4561509  0.3473161    0.00000       Uiso       1.00
       H86          H -0.9617154  0.4495213  0.3704318    0.00000       Uiso       1.00
        S3          S -0.6123778  0.9769973 -0.6693497    0.00000       Uiso       1.00
        O6          O -0.2880915  0.9576412 -0.6538765    0.00000       Uiso       1.00
        O7          O -0.9615867  0.9561507 -0.6526834    0.00000       Uiso       1.00
       H87          H -0.9617154  0.9495211 -0.6295677    0.00000       Uiso       1.00
        O8          O -0.6123778  0.8341229 -0.3399207    0.00000       Uiso       1.00
        O9          O -0.6123778  0.5058250  0.3341197    0.00000       Uiso       1.00
        S4          S -0.6123778  0.8306529 -0.3076232    0.00000       Uiso       1.00
       O10          O -0.2880915  0.8461261 -0.3037404    0.00000       Uiso       1.00
       O11          O -0.9615867  0.8473193 -0.3034429    0.00000       Uiso       1.00
       H88          H -0.9617154  0.8704349 -0.3199290    0.00000       Uiso       1.00
       C25          C -0.6123778  0.2012451  0.1465668    0.00000       Uiso       1.00
       C26          C -0.6123778  0.1814630  0.1312963    0.00000       Uiso       1.00
       C25          C -0.6123778  0.2987755 -0.1465528    0.00000       Uiso       1.00
       C26          C -0.6123778  0.3185576 -0.1312823    0.00000       Uiso       1.00
       C25          C -0.6123778  0.1465702  0.1522122    0.00000       Uiso       1.00
       C26          C -0.6123778  0.1312997  0.1872649    0.00000       Uiso       1.00
       C25          C -0.6123778  0.3534503 -0.1521983    0.00000       Uiso       1.00
       C26          C -0.6123778  0.3687209 -0.1872509    0.00000       Uiso       1.00
       C25          C -0.6123778  0.1522157  0.2012416    0.00000       Uiso       1.00
       C26          C -0.6123778  0.1872683  0.1814595    0.00000       Uiso       1.00
       C25          C -0.6123778  0.3478049 -0.2012277    0.00000       Uiso       1.00
       C26          C -0.6123778  0.3127522 -0.1814456    0.00000       Uiso       1.00
       C25          C -0.6123778  0.2012451  0.6465665    0.00000       Uiso       1.00
       C26          C -0.6123778  0.1814630  0.6312960    0.00000       Uiso       1.00
       C25          C -0.6123778  0.2987755  0.3534469    0.00000       Uiso       1.00
       C26          C -0.6123778  0.3185576  0.3687174    0.00000       Uiso       1.00
       C25          C -0.6123778  0.1465702  0.6522120    0.00000       Uiso       1.00
       C26          C -0.6123778  0.1312997  0.6872646    0.00000       Uiso       1.00
       C25          C -0.6123778  0.3534503  0.3478014    0.00000       Uiso       1.00
       C26          C -0.6123778  0.3687208  0.3127488    0.00000       Uiso       1.00
       C25          C -0.6123778  0.1522156  0.7012414    0.00000       Uiso       1.00
       C26          C -0.6123778  0.1872683  0.6814592    0.00000       Uiso       1.00
       C25          C -0.6123778  0.3478049  0.2987720    0.00000       Uiso       1.00
       C26          C -0.6123778  0.3127522  0.3185542    0.00000       Uiso       1.00
       C25          C -0.6123778  0.7012448 -0.3534329    0.00000       Uiso       1.00
       C26          C -0.6123778  0.6814627 -0.3687035    0.00000       Uiso       1.00
       C25          C -0.6123778  0.7987752 -0.6465526    0.00000       Uiso       1.00
       C26          C -0.6123778  0.8185573 -0.6312820    0.00000       Uiso       1.00
       C25          C -0.6123778  0.6465700 -0.3477875    0.00000       Uiso       1.00
       C26          C -0.6123778  0.6312994 -0.3127348    0.00000       Uiso       1.00
       C25          C -0.6123778  0.8534500 -0.6521980    0.00000       Uiso       1.00
       C26          C -0.6123778  0.8687206 -0.6872506    0.00000       Uiso       1.00
       C25          C -0.6123778  0.6522154 -0.2987581    0.00000       Uiso       1.00
       C26          C -0.6123778  0.6872680 -0.3185402    0.00000       Uiso       1.00
       C25          C -0.6123778  0.8478046 -0.7012274    0.00000       Uiso       1.00
       C26          C -0.6123778  0.8127519 -0.6814453    0.00000       Uiso       1.00
       C25          C -0.6123778  0.7012448  0.1465668    0.00000       Uiso       1.00
       C26          C -0.6123778  0.6814627  0.1312963    0.00000       Uiso       1.00
       C25          C -0.6123778  0.7987752 -0.1465528    0.00000       Uiso       1.00
       C26          C -0.6123778  0.8185573 -0.1312823    0.00000       Uiso       1.00
       C25          C -0.6123778  0.6465700  0.1522122    0.00000       Uiso       1.00
       C26          C -0.6123778  0.6312994  0.1872649    0.00000       Uiso       1.00
       C25          C -0.6123778  0.8534501 -0.1521983    0.00000       Uiso       1.00
       C26          C -0.6123778  0.8687206 -0.1872509    0.00000       Uiso       1.00
       C25          C -0.6123778  0.6522154  0.2012416    0.00000       Uiso       1.00
       C26          C -0.6123778  0.6872680  0.1814595    0.00000       Uiso       1.00
       C25          C -0.6123778  0.8478046 -0.2012277    0.00000       Uiso       1.00
       C26          C -0.6123778  0.8127520 -0.1814456    0.00000       Uiso       1.00
        O1          O -0.6123778  0.2298009  0.1304380    0.00000       Uiso       1.00
        O1          O -0.6123778  0.2702197 -0.1304240    0.00000       Uiso       1.00
        O1          O -0.6123778  0.1304414  0.1397853    0.00000       Uiso       1.00
        O1          O -0.6123778  0.3695792 -0.1397713    0.00000       Uiso       1.00
        O1          O -0.6123778  0.1397887  0.2297975    0.00000       Uiso       1.00
        O1          O -0.6123778  0.3602318 -0.2297835    0.00000       Uiso       1.00
        O1          O -0.6123778  0.2298009  0.6304377    0.00000       Uiso       1.00
        O1          O -0.6123778  0.2702197  0.3695758    0.00000       Uiso       1.00
        O1          O -0.6123778  0.1304414  0.6397850    0.00000       Uiso       1.00
        O1          O -0.6123778  0.3695792  0.3602284    0.00000       Uiso       1.00
        O1          O -0.6123778  0.1397887  0.7297972    0.00000       Uiso       1.00
        O1          O -0.6123778  0.3602318  0.2702163    0.00000       Uiso       1.00
        O1          O -0.6123778  0.7298006 -0.3695618    0.00000       Uiso       1.00
        O1          O -0.6123778  0.7702194 -0.6304237    0.00000       Uiso       1.00
        O1          O -0.6123778  0.6304411 -0.3602144    0.00000       Uiso       1.00
        O1          O -0.6123778  0.8695789 -0.6397710    0.00000       Uiso       1.00
        O1          O -0.6123778  0.6397884 -0.2702023    0.00000       Uiso       1.00
        O1          O -0.6123778  0.8602316 -0.7297832    0.00000       Uiso       1.00
        O1          O -0.6123778  0.7298006  0.1304380    0.00000       Uiso       1.00
        O1          O -0.6123778  0.7702194 -0.1304240    0.00000       Uiso       1.00
        O1          O -0.6123778  0.6304411  0.1397853    0.00000       Uiso       1.00
        O1          O -0.6123778  0.8695789 -0.1397713    0.00000       Uiso       1.00
        O1          O -0.6123778  0.6397884  0.2297975    0.00000       Uiso       1.00
        O1          O -0.6123778  0.8602316 -0.2297835    0.00000       Uiso       1.00
