data_crystal
 
_cell_length_a    3.30000
_cell_length_b    46.56460
_cell_length_c    46.56460
_cell_angle_alpha 60.00000
_cell_angle_beta  90.00000
_cell_angle_gamma 90.00000
 
_symmetry_space_group_name_Hall 'P 1'
_symmetry_space_group_name_H-M  'P 1'
 
loop_
_symmetry_equiv_pos_as_xyz
 'x,y,z' 
 
loop_
_atom_site_label
_atom_site_type_symbol
_atom_site_fract_x
_atom_site_fract_y
_atom_site_fract_z
_atom_site_charge
C          C      -0.61238   0.30704  -0.09940   0.0000000000
C          C      -0.61238   0.19298   0.09941   0.0000000000
C          C      -0.61238   0.40060  -0.20762   0.0000000000
C          C      -0.61238   0.09942   0.20763   0.0000000000
C          C      -0.61238   0.29238  -0.19296   0.0000000000
C          C      -0.61238   0.20764   0.19297   0.0000000000
C          C      -0.61238   0.30704   0.40060   0.0000000000
C          C      -0.61238   0.19298   0.59941   0.0000000000
C          C      -0.61238   0.40060   0.29238   0.0000000000
C          C      -0.61238   0.09942   0.70763   0.0000000000
C          C      -0.61238   0.29238   0.30704   0.0000000000
C          C      -0.61238   0.20764   0.69297   0.0000000000
C          C      -0.61238   0.80704  -0.59940   0.0000000000
C          C      -0.61238   0.69298  -0.40059   0.0000000000
C          C      -0.61238   0.90060  -0.70762   0.0000000000
C          C      -0.61238   0.59942  -0.29237   0.0000000000
C          C      -0.61238   0.79238  -0.69296   0.0000000000
C          C      -0.61238   0.70764  -0.30702   0.0000000000
C          C      -0.61238   0.80704  -0.09940   0.0000000000
C          C      -0.61238   0.69298   0.09941   0.0000000000
C          C      -0.61238   0.90060  -0.20762   0.0000000000
C          C      -0.61238   0.59942   0.20763   0.0000000000
C          C      -0.61238   0.79238  -0.19296   0.0000000000
C          C      -0.61238   0.70764   0.19297   0.0000000000
N          N      -0.61238   0.27076  -0.07329   0.0000000000
N          N      -0.61238   0.22926   0.07330   0.0000000000
N          N      -0.61238   0.42671  -0.19745   0.0000000000
N          N      -0.61238   0.07331   0.19746   0.0000000000
N          N      -0.61238   0.30256  -0.22924   0.0000000000
N          N      -0.61238   0.19746   0.22926   0.0000000000
N          N      -0.61238   0.27076   0.42671   0.0000000000
N          N      -0.61238   0.22926   0.57330   0.0000000000
N          N      -0.61238   0.42671   0.30255   0.0000000000
N          N      -0.61238   0.07331   0.69746   0.0000000000
N          N      -0.61238   0.30256   0.27076   0.0000000000
N          N      -0.61238   0.19746   0.72926   0.0000000000
N          N      -0.61238   0.77076  -0.57329   0.0000000000
N          N      -0.61238   0.72926  -0.42669   0.0000000000
N          N      -0.61238   0.92671  -0.69745   0.0000000000
N          N      -0.61238   0.57331  -0.30254   0.0000000000
N          N      -0.61238   0.80256  -0.72924   0.0000000000
N          N      -0.61238   0.69746  -0.27074   0.0000000000
N          N      -0.61238   0.77076  -0.07329   0.0000000000
N          N      -0.61238   0.72926   0.07330   0.0000000000
N          N      -0.61238   0.92671  -0.19745   0.0000000000
N          N      -0.61238   0.57331   0.19746   0.0000000000
N          N      -0.61238   0.80256  -0.22924   0.0000000000
N          N      -0.61238   0.69746   0.22926   0.0000000000
C          C      -0.61238   0.26055  -0.03701   0.0000000000
C          C      -0.61238   0.23947   0.03703   0.0000000000
C          C      -0.61238   0.46299  -0.22352   0.0000000000
C          C      -0.61238   0.03703   0.22353   0.0000000000
C          C      -0.61238   0.27648  -0.23945   0.0000000000
C          C      -0.61238   0.22354   0.23946   0.0000000000
C          C      -0.61238   0.26055   0.46299   0.0000000000
C          C      -0.61238   0.23947   0.53703   0.0000000000
C          C      -0.61238   0.46299   0.27648   0.0000000000
C          C      -0.61238   0.03703   0.72353   0.0000000000
C          C      -0.61238   0.27648   0.26055   0.0000000000
C          C      -0.61238   0.22354   0.73946   0.0000000000
C          C      -0.61238   0.76055  -0.53701   0.0000000000
C          C      -0.61238   0.73947  -0.46297   0.0000000000
C          C      -0.61238   0.96299  -0.72352   0.0000000000
C          C      -0.61238   0.53703  -0.27647   0.0000000000
C          C      -0.61238   0.77648  -0.73945   0.0000000000
C          C      -0.61238   0.72354  -0.26054   0.0000000000
C          C      -0.61238   0.76055  -0.03701   0.0000000000
C          C      -0.61238   0.73947   0.03703   0.0000000000
C          C      -0.61238   0.96299  -0.22352   0.0000000000
C          C      -0.61238   0.53703   0.22353   0.0000000000
C          C      -0.61238   0.77648  -0.23945   0.0000000000
C          C      -0.61238   0.72354   0.23946   0.0000000000
C          C      -0.61238   0.22349  -0.01055   0.0000000000
C          C      -0.61238   0.27653   0.01056   0.0000000000
N          N      -0.61238   0.48946  -0.21292   0.0000000000
C          C      -0.61238   0.01056   0.21294   0.0000000000
N          N      -0.61238   0.28708  -0.27651   0.0000000000
C          C      -0.61238   0.21294   0.27652   0.0000000000
N          N      -0.61238   0.22349   0.48945   0.0000000000
C          C      -0.61238   0.27653   0.51056   0.0000000000
C          C      -0.61238   0.48946   0.28708   0.0000000000
C          C      -0.61238   0.01056   0.71294   0.0000000000
N          N      -0.61238   0.28708   0.22349   0.0000000000
C          C      -0.61238   0.21294   0.77652   0.0000000000
N          N      -0.61238   0.72349  -0.51055   0.0000000000
C          C      -0.61238   0.77653  -0.48944   0.0000000000
C          C      -0.61238   0.98946  -0.71292   0.0000000000
C          C      -0.61238   0.51056  -0.28706   0.0000000000
N          N      -0.61238   0.78708  -0.77651   0.0000000000
C          C      -0.61238   0.71294  -0.22348   0.0000000000
N          N      -0.61238   0.72349  -0.01055   0.0000000000
C          C      -0.61238   0.77653   0.01056   0.0000000000
N          N      -0.61238   0.98946  -0.21292   0.0000000000
C          C      -0.61238   0.51056   0.21294   0.0000000000
C          C      -0.61238   0.78708  -0.27651   0.0000000000
C          C      -0.61238   0.71294   0.27652   0.0000000000
C          C      -0.61238   0.21295   0.02650   0.0000000000
C          C      -0.61238   0.28707  -0.02649   0.0000000000
C          C      -0.61238   0.02651   0.26058   0.0000000000
C          C      -0.61238   0.47351  -0.26056   0.0000000000
C          C      -0.61238   0.26058   0.21294   0.0000000000
C          C      -0.61238   0.23944  -0.21293   0.0000000000
C          C      -0.61238   0.21295   0.52650   0.0000000000
C          C      -0.61238   0.28707   0.47351   0.0000000000
C          C      -0.61238   0.02651   0.76058   0.0000000000
C          C      -0.61238   0.47351   0.23944   0.0000000000
C          C      -0.61238   0.26058   0.71294   0.0000000000
C          C      -0.61238   0.23944   0.28707   0.0000000000
C          C      -0.61238   0.71295  -0.47350   0.0000000000
C          C      -0.61238   0.78707  -0.52649   0.0000000000
C          C      -0.61238   0.52651  -0.23942   0.0000000000
C          C      -0.61238   0.97351  -0.76056   0.0000000000
C          C      -0.61238   0.76058  -0.28706   0.0000000000
C          C      -0.61238   0.73944  -0.71293   0.0000000000
C          C      -0.61238   0.71295   0.02650   0.0000000000
C          C      -0.61238   0.78707  -0.02649   0.0000000000
C          C      -0.61238   0.52651   0.26058   0.0000000000
C          C      -0.61238   0.97351  -0.26056   0.0000000000
C          C      -0.61238   0.76058   0.21294   0.0000000000
C          C      -0.61238   0.73944  -0.21293   0.0000000000
H          H      -0.61238   0.32675  -0.09170   0.0000000000
H          H      -0.61238   0.17328   0.09172   0.0000000000
H          H      -0.61238   0.40830  -0.23502   0.0000000000
H          H      -0.61238   0.09172   0.23503   0.0000000000
H          H      -0.61238   0.26498  -0.17326   0.0000000000
H          H      -0.61238   0.23504   0.17327   0.0000000000
H          H      -0.61238   0.32675   0.40830   0.0000000000
H          H      -0.61238   0.17328   0.59172   0.0000000000
H          H      -0.61238   0.40830   0.26498   0.0000000000
H          H      -0.61238   0.09172   0.73503   0.0000000000
H          H      -0.61238   0.26498   0.32674   0.0000000000
H          H      -0.61238   0.23504   0.67327   0.0000000000
H          H      -0.61238   0.82675  -0.59170   0.0000000000
H          H      -0.61238   0.67327  -0.40828   0.0000000000
H          H      -0.61238   0.90830  -0.73502   0.0000000000
H          H      -0.61238   0.59172  -0.26497   0.0000000000
H          H      -0.61238   0.76498  -0.67326   0.0000000000
H          H      -0.61238   0.73504  -0.32673   0.0000000000
H          H      -0.61238   0.82675  -0.09170   0.0000000000
H          H      -0.61238   0.67327   0.09172   0.0000000000
H          H      -0.61238   0.90830  -0.23502   0.0000000000
H          H      -0.61238   0.59172   0.23503   0.0000000000
H          H      -0.61238   0.76498  -0.17326   0.0000000000
H          H      -0.61238   0.73504   0.17327   0.0000000000
H          H      -0.61238   0.29606   0.01838   0.0000000000
H          H      -0.61238   0.01839   0.18558   0.0000000000
H          H      -0.61238   0.18558   0.29606   0.0000000000
H          H      -0.61238   0.29606   0.51838   0.0000000000
H          H      -0.61238   0.01839   0.68558   0.0000000000
H          H      -0.61238   0.18558   0.79606   0.0000000000
H          H      -0.61238   0.79606  -0.48162   0.0000000000
H          H      -0.61238   0.51839  -0.31442   0.0000000000
H          H      -0.61238   0.68558  -0.20394   0.0000000000
H          H      -0.61238   0.79606   0.01838   0.0000000000
H          H      -0.61238   0.51839   0.18558   0.0000000000
H          H      -0.61238   0.68558   0.29606   0.0000000000
H          H      -0.61238   0.18548   0.04615   0.0000000000
H          H      -0.61238   0.31454  -0.04613   0.0000000000
H          H      -0.61238   0.04615   0.26840   0.0000000000
H          H      -0.61238   0.45387  -0.26838   0.0000000000
H          H      -0.61238   0.26840   0.18548   0.0000000000
H          H      -0.61238   0.23162  -0.18546   0.0000000000
H          H      -0.61238   0.18548   0.54614   0.0000000000
H          H      -0.61238   0.31454   0.45387   0.0000000000
H          H      -0.61238   0.04615   0.76840   0.0000000000
H          H      -0.61238   0.45387   0.23162   0.0000000000
H          H      -0.61238   0.26840   0.68548   0.0000000000
H          H      -0.61238   0.23162   0.31454   0.0000000000
H          H      -0.61238   0.68548  -0.45385   0.0000000000
H          H      -0.61238   0.81454  -0.54613   0.0000000000
H          H      -0.61238   0.54615  -0.23160   0.0000000000
H          H      -0.61238   0.95387  -0.76838   0.0000000000
H          H      -0.61238   0.76840  -0.31452   0.0000000000
H          H      -0.61238   0.73162  -0.68546   0.0000000000
H          H      -0.61238   0.68548   0.04615   0.0000000000
H          H      -0.61238   0.81454  -0.04613   0.0000000000
H          H      -0.61238   0.54615   0.26840   0.0000000000
H          H      -0.61238   0.95387  -0.26838   0.0000000000
H          H      -0.61238   0.76840   0.18548   0.0000000000
H          H      -0.61238   0.73162  -0.18546   0.0000000000
H          H      -0.61238   0.24845   0.08078   0.0000000000
H          H      -0.61238   0.25157  -0.08077   0.0000000000
H          H      -0.61238   0.08079   0.17079   0.0000000000
H          H      -0.61238   0.41923  -0.17078   0.0000000000
H          H      -0.61238   0.17080   0.24844   0.0000000000
H          H      -0.61238   0.32922  -0.24843   0.0000000000
H          H      -0.61238   0.24845   0.58078   0.0000000000
H          H      -0.61238   0.25157   0.41923   0.0000000000
H          H      -0.61238   0.08079   0.67079   0.0000000000
H          H      -0.61238   0.41923   0.32922   0.0000000000
H          H      -0.61238   0.17080   0.74844   0.0000000000
H          H      -0.61238   0.32922   0.25157   0.0000000000
H          H      -0.61238   0.74845  -0.41922   0.0000000000
H          H      -0.61238   0.75157  -0.58077   0.0000000000
H          H      -0.61238   0.58079  -0.32921   0.0000000000
H          H      -0.61238   0.91923  -0.67078   0.0000000000
H          H      -0.61238   0.67080  -0.25156   0.0000000000
H          H      -0.61238   0.82922  -0.74843   0.0000000000
H          H      -0.61238   0.74845   0.08078   0.0000000000
H          H      -0.61238   0.75157  -0.08077   0.0000000000
H          H      -0.61238   0.58079   0.17079   0.0000000000
H          H      -0.61238   0.91923  -0.17078   0.0000000000
H          H      -0.61238   0.67080   0.24844   0.0000000000
H          H      -0.61238   0.82922  -0.24843   0.0000000000
S          S      -0.61238   0.19238  -0.02301   0.0000000000
O          O      -0.61238   0.16008   0.00582   0.0000000000
O          O      -0.28809   0.19626  -0.04236   0.0000000000
O          O      -0.96159   0.19656  -0.04385   0.0000000000
H          H      -0.96172   0.18007  -0.05048   0.0000000000
S          S      -0.61238   0.47700   0.33065   0.0000000000
O          O      -0.28809   0.45764   0.34612   0.0000000000
O          O      -0.96159   0.45615   0.34732   0.0000000000
H          H      -0.96172   0.44952   0.37043   0.0000000000
S          S      -0.61238   0.97700  -0.66935   0.0000000000
O          O      -0.28809   0.95764  -0.65388   0.0000000000
O          O      -0.96159   0.95615  -0.65268   0.0000000000
H          H      -0.96172   0.94952  -0.62957   0.0000000000
O          O      -0.61238   0.83412  -0.33992   0.0000000000
O          O      -0.61238   0.50582   0.33412   0.0000000000
S          S      -0.61238   0.83065  -0.30762   0.0000000000
O          O      -0.28809   0.84613  -0.30374   0.0000000000
O          O      -0.96159   0.84732  -0.30344   0.0000000000
H          H      -0.96172   0.87043  -0.31993   0.0000000000
C          C      -0.61238   0.20125   0.14657   0.0000000000
C          C      -0.61238   0.18146   0.13130   0.0000000000
C          C      -0.61238   0.29878  -0.14655   0.0000000000
C          C      -0.61238   0.31856  -0.13128   0.0000000000
C          C      -0.61238   0.14657   0.15221   0.0000000000
C          C      -0.61238   0.13130   0.18726   0.0000000000
C          C      -0.61238   0.35345  -0.15220   0.0000000000
C          C      -0.61238   0.36872  -0.18725   0.0000000000
C          C      -0.61238   0.15222   0.20124   0.0000000000
C          C      -0.61238   0.18727   0.18146   0.0000000000
C          C      -0.61238   0.34780  -0.20123   0.0000000000
C          C      -0.61238   0.31275  -0.18145   0.0000000000
C          C      -0.61238   0.20125   0.64657   0.0000000000
C          C      -0.61238   0.18146   0.63130   0.0000000000
C          C      -0.61238   0.29878   0.35345   0.0000000000
C          C      -0.61238   0.31856   0.36872   0.0000000000
C          C      -0.61238   0.14657   0.65221   0.0000000000
C          C      -0.61238   0.13130   0.68726   0.0000000000
C          C      -0.61238   0.35345   0.34780   0.0000000000
C          C      -0.61238   0.36872   0.31275   0.0000000000
C          C      -0.61238   0.15222   0.70124   0.0000000000
C          C      -0.61238   0.18727   0.68146   0.0000000000
C          C      -0.61238   0.34780   0.29877   0.0000000000
C          C      -0.61238   0.31275   0.31855   0.0000000000
C          C      -0.61238   0.70124  -0.35343   0.0000000000
C          C      -0.61238   0.68146  -0.36870   0.0000000000
C          C      -0.61238   0.79878  -0.64655   0.0000000000
C          C      -0.61238   0.81856  -0.63128   0.0000000000
C          C      -0.61238   0.64657  -0.34779   0.0000000000
C          C      -0.61238   0.63130  -0.31273   0.0000000000
C          C      -0.61238   0.85345  -0.65220   0.0000000000
C          C      -0.61238   0.86872  -0.68725   0.0000000000
C          C      -0.61238   0.65222  -0.29876   0.0000000000
C          C      -0.61238   0.68727  -0.31854   0.0000000000
C          C      -0.61238   0.84780  -0.70123   0.0000000000
C          C      -0.61238   0.81275  -0.68145   0.0000000000
C          C      -0.61238   0.70124   0.14657   0.0000000000
C          C      -0.61238   0.68146   0.13130   0.0000000000
C          C      -0.61238   0.79878  -0.14655   0.0000000000
C          C      -0.61238   0.81856  -0.13128   0.0000000000
C          C      -0.61238   0.64657   0.15221   0.0000000000
C          C      -0.61238   0.63130   0.18726   0.0000000000
C          C      -0.61238   0.85345  -0.15220   0.0000000000
C          C      -0.61238   0.86872  -0.18725   0.0000000000
C          C      -0.61238   0.65222   0.20124   0.0000000000
C          C      -0.61238   0.68727   0.18146   0.0000000000
C          C      -0.61238   0.84780  -0.20123   0.0000000000
C          C      -0.61238   0.81275  -0.18145   0.0000000000
O          O      -0.61238   0.22980   0.13044   0.0000000000
O          O      -0.61238   0.27022  -0.13042   0.0000000000
O          O      -0.61238   0.13044   0.13979   0.0000000000
O          O      -0.61238   0.36958  -0.13977   0.0000000000
O          O      -0.61238   0.13979   0.22980   0.0000000000
O          O      -0.61238   0.36023  -0.22978   0.0000000000
O          O      -0.61238   0.22980   0.63044   0.0000000000
O          O      -0.61238   0.27022   0.36958   0.0000000000
O          O      -0.61238   0.13044   0.63979   0.0000000000
O          O      -0.61238   0.36958   0.36023   0.0000000000
O          O      -0.61238   0.13979   0.72980   0.0000000000
O          O      -0.61238   0.36023   0.27022   0.0000000000
O          O      -0.61238   0.72980  -0.36956   0.0000000000
O          O      -0.61238   0.77022  -0.63042   0.0000000000
O          O      -0.61238   0.63044  -0.36021   0.0000000000
O          O      -0.61238   0.86958  -0.63977   0.0000000000
O          O      -0.61238   0.63979  -0.27020   0.0000000000
O          O      -0.61238   0.86023  -0.72978   0.0000000000
O          O      -0.61238   0.72980   0.13044   0.0000000000
O          O      -0.61238   0.77022  -0.13042   0.0000000000
O          O      -0.61238   0.63044   0.13979   0.0000000000
O          O      -0.61238   0.86958  -0.13977   0.0000000000
O          O      -0.61238   0.63979   0.22980   0.0000000000
O          O      -0.61238   0.86023  -0.22978   0.0000000000
