data_crystal
 
_cell_length_a    28.87020
_cell_length_b    28.90150
_cell_length_c    3.40000
_cell_angle_alpha 90.00000
_cell_angle_beta  90.00000
_cell_angle_gamma 119.91460
 
_symmetry_space_group_name_Hall 'P 1'
_symmetry_space_group_name_H-M  'P 1'
 
loop_
_symmetry_equiv_pos_as_xyz
 'x,y,z' 
 
loop_
_atom_site_label
_atom_site_type_symbol
_atom_site_fract_x
_atom_site_fract_y
_atom_site_fract_z
_atom_site_charge
C          C       0.50292   0.45393   1.47059   0.0000000000
N          N       0.54831   0.50256   1.47059   0.0000000000
C          C       0.54603   0.54849   1.47059   0.0000000000
N          N       0.49732   0.54521   1.47059   0.0000000000
C          C       0.45140   0.49714   1.47059   0.0000000000
N          N       0.45476   0.45180   1.47059   0.0000000000
O          O       0.50835   0.40800   1.47059   0.0000000000
O          O       0.59182   0.59984   1.47059   0.0000000000
O          O       0.40000   0.49168   1.47059   0.0000000000
C          C       0.46593   0.35425   1.47059   0.0000000000
C          C       0.64574   0.61154   1.47059   0.0000000000
C          C       0.38843   0.53398   1.47059   0.0000000000
C          C       0.42642   0.58972   1.47059   0.0000000000
C          C       0.40919   0.62760   1.47059   0.0000000000
C          C       0.35437   0.61148   1.47059   0.0000000000
C          C       0.31642   0.55615   1.47059   0.0000000000
C          C       0.33357   0.51827   1.47059   0.0000000000
C          C       0.66377   0.57370   1.47059   0.0000000000
C          C       0.71892   0.59107   1.47059   0.0000000000
C          C       0.75737   0.64589   1.47059   0.0000000000
C          C       0.73967   0.68367   1.47059   0.0000000000
C          C       0.68461   0.66638   1.47059   0.0000000000
C          C       0.41014   0.33668   1.47059   0.0000000000
C          C       0.37214   0.28171   1.47059   0.0000000000
C          C       0.38816   0.24294   1.47059   0.0000000000
C          C       0.44353   0.26012   1.47059   0.0000000000
C          C       0.48154   0.31503   1.47059   0.0000000000
H          H       0.46895   0.60594   1.47059   0.0000000000
H          H       0.43874   0.66982   1.47059   0.0000000000
H          H       0.27388   0.54159   1.47059   0.0000000000
H          H       0.30386   0.47612   1.47059   0.0000000000
H          H       0.63761   0.53120   1.47059   0.0000000000
H          H       0.73184   0.56165   1.47059   0.0000000000
H          H       0.76742   0.72618   1.47059   0.0000000000
H          H       0.67192   0.69596   1.47059   0.0000000000
H          H       0.39393   0.36300   1.47059   0.0000000000
H          H       0.32989   0.26919   1.47059   0.0000000000
H          H       0.45801   0.23208   1.47059   0.0000000000
H          H       0.52372   0.32731   1.47059   0.0000000000
N          N       0.33955   0.65241   1.47059   0.0000000000
C          C       0.29121   0.64509   1.47059   0.0000000000
H          H       0.25580   0.60598   1.47059   0.0000000000
N          N       0.81318   0.66089   1.47059   0.0000000000
C          C       0.85397   0.70925   1.47059   0.0000000000
H          H       0.85001   0.74455   1.47059   0.0000000000
N          N       0.34708   0.18734   1.47059   0.0000000000
C          C       0.35425   0.14626   1.47059   0.0000000000
H          H       0.39336   0.14979   1.47059   0.0000000000
C          C       0.21173   0.82895   1.47059   0.0000000000
N          N       0.21574   0.87795   1.47059   0.0000000000
C          C       0.17137   0.88309   1.47059   0.0000000000
N          N       0.12239   0.83818   1.47059   0.0000000000
C          C       0.11730   0.78878   1.47059   0.0000000000
N          N       0.16230   0.78472   1.47059   0.0000000000
O          O       0.25950   0.82674   1.47059   0.0000000000
O          O       0.17337   0.93290   1.47059   0.0000000000
O          O       0.06745   0.74108   1.47059   0.0000000000
C          C       0.26340   0.77968   1.47059   0.0000000000
C          C       0.22027   0.98385   1.47059   0.0000000000
C          C       0.01646   0.73716   1.47059   0.0000000000
C          C       0.00608   0.78056   1.47059   0.0000000000
C          C       0.95310   0.77085   1.47059   0.0000000000
C          C       0.90940   0.71818   1.47059   0.0000000000
C          C       0.91941   0.67503   1.47059   0.0000000000
C          C       0.97228   0.68466   1.47059   0.0000000000
C          C       0.27408   0.99426   1.47059   0.0000000000
C          C       0.31716   0.04722   1.47059   0.0000000000
C          C       0.30796   0.09084   1.47059   0.0000000000
C          C       0.25475   0.08078   1.47059   0.0000000000
C          C       0.21171   0.02795   1.47059   0.0000000000
C          C       0.21993   0.72603   1.47059   0.0000000000
C          C       0.22962   0.68277   1.47059   0.0000000000
C          C       0.28232   0.69160   1.47059   0.0000000000
C          C       0.32555   0.74463   1.47059   0.0000000000
C          C       0.31594   0.78787   1.47059   0.0000000000
H          H       0.03665   0.82186   1.47059   0.0000000000
H          H       0.94621   0.80451   1.47059   0.0000000000
H          H       0.88667   0.63411   1.47059   0.0000000000
H          H       0.97905   0.65095   1.47059   0.0000000000
H          H       0.28492   0.96372   1.47059   0.0000000000
H          H       0.35774   0.05415   1.47059   0.0000000000
H          H       0.24639   0.11345   1.47059   0.0000000000
H          H       0.17119   0.02113   1.47059   0.0000000000
H          H       0.17859   0.71537   1.47059   0.0000000000
H          H       0.19591   0.64233   1.47059   0.0000000000
H          H       0.36650   0.75271   1.47059   0.0000000000
H          H       0.34971   0.82825   1.47059   0.0000000000
