data_TPT-COF-1
_audit_creation_date              0000-00-00
_audit_creation_method            'LanYouShi'
_symmetry_space_group_name_H-M    'P1'
_cell_length_a                    28.8701992
_cell_length_b                    28.9015007
_cell_length_c                    3.4000001
_cell_angle_alpha                 90.0000000
_cell_angle_beta                  90.0000000
_cell_angle_gamma                 119.9145966
loop_
_atom_site_label
_atom_site_type_symbol
_atom_site_fract_x
_atom_site_fract_y
_atom_site_fract_z
_atom_site_U_iso_or_equiv
_atom_site_adp_type
_atom_site_occupancy
        C1          C  0.5029155  0.4539342  1.4705882    0.00000       Uiso       1.00
        N1          N  0.5483071  0.5025647  1.4705882    0.00000       Uiso       1.00
        C2          C  0.5460272  0.5484899  1.4705882    0.00000       Uiso       1.00
        N2          N  0.4973169  0.5452099  1.4705882    0.00000       Uiso       1.00
        C3          C  0.4513974  0.4971371  1.4705882    0.00000       Uiso       1.00
        N3          N  0.4547562  0.4518012  1.4705882    0.00000       Uiso       1.00
        O1          O  0.5083476  0.4080039  1.4705882    0.00000       Uiso       1.00
        O2          O  0.5918178  0.5998351  1.4705882    0.00000       Uiso       1.00
        O3          O  0.4000035  0.4916841  1.4705882    0.00000       Uiso       1.00
        C4          C  0.4659283  0.3542506  1.4705882    0.00000       Uiso       1.00
        C5          C  0.6457387  0.6115359  1.4705882    0.00000       Uiso       1.00
        C6          C  0.3884299  0.5339838  1.4705882    0.00000       Uiso       1.00
        C7          C  0.4264207  0.5897201  1.4705882    0.00000       Uiso       1.00
        C8          C  0.4091947  0.6276018  1.4705882    0.00000       Uiso       1.00
        C9          C  0.3543653  0.6114804  1.4705882    0.00000       Uiso       1.00
       C10          C  0.3164154  0.5561482  1.4705882    0.00000       Uiso       1.00
       C11          C  0.3335704  0.5182733  1.4705882    0.00000       Uiso       1.00
       C12          C  0.6637692  0.5736982  1.4705882    0.00000       Uiso       1.00
       C13          C  0.7189228  0.5910670  1.4705882    0.00000       Uiso       1.00
       C14          C  0.7573659  0.6458907  1.4705882    0.00000       Uiso       1.00
       C15          C  0.7396673  0.6836717  1.4705882    0.00000       Uiso       1.00
       C16          C  0.6846098  0.6663750  1.4705882    0.00000       Uiso       1.00
       C17          C  0.4101371  0.3366772  1.4705882    0.00000       Uiso       1.00
       C18          C  0.3721356  0.2817095  1.4705882    0.00000       Uiso       1.00
       C19          C  0.3881579  0.2429367  1.4705882    0.00000       Uiso       1.00
       C20          C  0.4435315  0.2601190  1.4705882    0.00000       Uiso       1.00
       C21          C  0.4815409  0.3150252  1.4705882    0.00000       Uiso       1.00
        H1          H  0.4689470  0.6059394  1.4705882    0.00000       Uiso       1.00
        H2          H  0.4387383  0.6698185  1.4705882    0.00000       Uiso       1.00
        H3          H  0.2738810  0.5415880  1.4705882    0.00000       Uiso       1.00
        H4          H  0.3038602  0.4761177  1.4705882    0.00000       Uiso       1.00
        H5          H  0.6376117  0.5312049  1.4705882    0.00000       Uiso       1.00
        H6          H  0.7318369  0.5616471  1.4705882    0.00000       Uiso       1.00
        H7          H  0.7674183  0.7261835  1.4705882    0.00000       Uiso       1.00
        H8          H  0.6719207  0.6959608  1.4705882    0.00000       Uiso       1.00
        H9          H  0.3939274  0.3629983  1.4705882    0.00000       Uiso       1.00
       H10          H  0.3298919  0.2691946  1.4705882    0.00000       Uiso       1.00
       H11          H  0.4580145  0.2320768  1.4705882    0.00000       Uiso       1.00
       H12          H  0.5237216  0.3273096  1.4705882    0.00000       Uiso       1.00
        N4          N  0.3395511  0.6524125  1.4705882    0.00000       Uiso       1.00
       C22          C  0.2912086  0.6450910  1.4705882    0.00000       Uiso       1.00
       H13          H  0.2558032  0.6059800  1.4705882    0.00000       Uiso       1.00
        N5          N  0.8131767  0.6608875  1.4705882    0.00000       Uiso       1.00
       C23          C  0.8539656  0.7092482  1.4705882    0.00000       Uiso       1.00
       H14          H  0.8500102  0.7445516  1.4705882    0.00000       Uiso       1.00
        N6          N  0.3470767  0.1873418  1.4705882    0.00000       Uiso       1.00
       C24          C  0.3542507  0.1462578  1.4705882    0.00000       Uiso       1.00
       H15          H  0.3933564  0.1497891  1.4705882    0.00000       Uiso       1.00
       C25          C  0.2117324  0.8289543  1.4705881    0.00000       Uiso       1.00
        N7          N  0.2157373  0.8779459  1.4705881    0.00000       Uiso       1.00
       C26          C  0.1713706  0.8830878  1.4705881    0.00000       Uiso       1.00
        N8          N  0.1223879  0.8381785  1.4705882    0.00000       Uiso       1.00
       C27          C  0.1173023  0.7887766  1.4705882    0.00000       Uiso       1.00
        N9          N  0.1622982  0.7847185  1.4705881    0.00000       Uiso       1.00
        O4          O  0.2594971  0.8267370  1.4705881    0.00000       Uiso       1.00
        O5          O  0.1733709  0.9329011  1.4705882    0.00000       Uiso       1.00
        O6          O  0.0674457  0.7410778  1.4705882    0.00000       Uiso       1.00
       C28          C  0.2633996  0.7796839  1.4705881    0.00000       Uiso       1.00
       C29          C  0.2202679  0.9838530  1.4705881    0.00000       Uiso       1.00
       C30          C  0.0164556  0.7371585  1.4705882    0.00000       Uiso       1.00
       C31          C  0.0060806  0.7805623  1.4705882    0.00000       Uiso       1.00
       C32          C  0.9530995  0.7708477  1.4705882    0.00000       Uiso       1.00
       C33          C  0.9094028  0.7181849  1.4705882    0.00000       Uiso       1.00
       C34          C  0.9194119  0.6750293  1.4705882    0.00000       Uiso       1.00
       C35          C  0.9722759  0.6846578  1.4705882    0.00000       Uiso       1.00
       C36          C  0.2740760  0.9942648  1.4705881    0.00000       Uiso       1.00
       C37          C  0.3171604  0.0472233  1.4705881    0.00000       Uiso       1.00
       C38          C  0.3079598  0.0908402  1.4705881    0.00000       Uiso       1.00
       C39          C  0.2547532  0.0807751  1.4705881    0.00000       Uiso       1.00
       C40          C  0.2117119  0.0279470  1.4705881    0.00000       Uiso       1.00
       C41          C  0.2199321  0.7260272  1.4705881    0.00000       Uiso       1.00
       C42          C  0.2296206  0.6827673  1.4705881    0.00000       Uiso       1.00
       C43          C  0.2823209  0.6915995  1.4705881    0.00000       Uiso       1.00
       C44          C  0.3255462  0.7446349  1.4705881    0.00000       Uiso       1.00
       C45          C  0.3159447  0.7878706  1.4705881    0.00000       Uiso       1.00
       H16          H  0.0366542  0.8218625  1.4705882    0.00000       Uiso       1.00
       H17          H  0.9462138  0.8045072  1.4705882    0.00000       Uiso       1.00
       H18          H  0.8866709  0.6341109  1.4705882    0.00000       Uiso       1.00
       H19          H  0.9790525  0.6509478  1.4705882    0.00000       Uiso       1.00
       H20          H  0.2849227  0.9637169  1.4705881    0.00000       Uiso       1.00
       H21          H  0.3577422  0.0541522  1.4705881    0.00000       Uiso       1.00
       H22          H  0.2463941  0.1134463  1.4705881    0.00000       Uiso       1.00
       H23          H  0.1711879  0.0211273  1.4705882    0.00000       Uiso       1.00
       H24          H  0.1785886  0.7153695  1.4705882    0.00000       Uiso       1.00
       H25          H  0.1959052  0.6423269  1.4705881    0.00000       Uiso       1.00
       H26          H  0.3664988  0.7527117  1.4705881    0.00000       Uiso       1.00
       H27          H  0.3497116  0.8282512  1.4705881    0.00000       Uiso       1.00
