data_TPT-COF-2
_audit_creation_date              0000-00-00
_audit_creation_method            'LanYouShi'
_symmetry_space_group_name_H-M    'P1'
_cell_length_a                    40.7177010
_cell_length_b                    40.7145004
_cell_length_c                    3.4000001
_cell_angle_alpha                 90.0000000
_cell_angle_beta                  90.0000000
_cell_angle_gamma                 119.7882004
loop_
_atom_site_label
_atom_site_type_symbol
_atom_site_fract_x
_atom_site_fract_y
_atom_site_fract_z
_atom_site_U_iso_or_equiv
_atom_site_adp_type
_atom_site_occupancy
        C1          C  0.5014098  0.4669449  1.4705882    0.00000       Uiso       1.00
        N1          N  0.5339069  0.5010872  1.4705882    0.00000       Uiso       1.00
        C2          C  0.5329408  0.5340327  1.4705882    0.00000       Uiso       1.00
        N2          N  0.4987411  0.5324401  1.4705882    0.00000       Uiso       1.00
        C3          C  0.4658815  0.4987057  1.4705882    0.00000       Uiso       1.00
        N3          N  0.4676123  0.4661658  1.4705882    0.00000       Uiso       1.00
        O1          O  0.5045860  0.4339468  1.4705882    0.00000       Uiso       1.00
        O2          O  0.5657551  0.5701141  1.4705882    0.00000       Uiso       1.00
        O3          O  0.4297703  0.4955977  1.4705882    0.00000       Uiso       1.00
        C4          C  0.4741025  0.3960873  1.4705882    0.00000       Uiso       1.00
        C5          C  0.6037242  0.5776599  1.4705882    0.00000       Uiso       1.00
        C6          C  0.4222376  0.5260897  1.4705882    0.00000       Uiso       1.00
        C7          C  0.4496435  0.5654392  1.4705882    0.00000       Uiso       1.00
        C8          C  0.4380867  0.5928532  1.4705882    0.00000       Uiso       1.00
        C9          C  0.3994196  0.5821537  1.4705882    0.00000       Uiso       1.00
       C10          C  0.3720481  0.5430932  1.4705882    0.00000       Uiso       1.00
       C11          C  0.3835552  0.5156851  1.4705882    0.00000       Uiso       1.00
       C12          C  0.6158457  0.5502648  1.4705882    0.00000       Uiso       1.00
       C13          C  0.6547572  0.5618532  1.4705882    0.00000       Uiso       1.00
       C14          C  0.6824676  0.6005417  1.4705882    0.00000       Uiso       1.00
       C15          C  0.6705780  0.6278908  1.4705882    0.00000       Uiso       1.00
       C16          C  0.6317348  0.6163527  1.4705882    0.00000       Uiso       1.00
       C17          C  0.4347411  0.3843622  1.4705882    0.00000       Uiso       1.00
       C18          C  0.4073384  0.3455637  1.4705882    0.00000       Uiso       1.00
       C19          C  0.4180389  0.3175299  1.4705882    0.00000       Uiso       1.00
       C20          C  0.4571021  0.3289811  1.4705882    0.00000       Uiso       1.00
       C21          C  0.4845095  0.3677355  1.4705882    0.00000       Uiso       1.00
        H1          H  0.4796852  0.5764002  1.4705882    0.00000       Uiso       1.00
        H2          H  0.4593833  0.6226460  1.4705882    0.00000       Uiso       1.00
        H3          H  0.3420235  0.5333212  1.4705882    0.00000       Uiso       1.00
        H4          H  0.3621426  0.4859388  1.4705882    0.00000       Uiso       1.00
        H5          H  0.5969195  0.5202213  1.4705882    0.00000       Uiso       1.00
        H6          H  0.6634071  0.5405700  1.4705882    0.00000       Uiso       1.00
        H7          H  0.6906219  0.6579230  1.4705882    0.00000       Uiso       1.00
        H8          H  0.6232451  0.6377513  1.4705882    0.00000       Uiso       1.00
        H9          H  0.4237377  0.4034761  1.4705882    0.00000       Uiso       1.00
       H10          H  0.3775458  0.3372529  1.4705882    0.00000       Uiso       1.00
       H11          H  0.4668711  0.3086608  1.4705882    0.00000       Uiso       1.00
       H12          H  0.5142547  0.3758821  1.4705882    0.00000       Uiso       1.00
        N4          N  0.3895960  0.6117161  1.4705882    0.00000       Uiso       1.00
       C22          C  0.3555986  0.6072217  1.4705882    0.00000       Uiso       1.00
       H13          H  0.3302346  0.5797457  1.4705882    0.00000       Uiso       1.00
        N5          N  0.7218072  0.6104199  1.4705882    0.00000       Uiso       1.00
       C23          C  0.7510734  0.6444405  1.4705882    0.00000       Uiso       1.00
       H14          H  0.7487862  0.6698005  1.4705882    0.00000       Uiso       1.00
        N6          N  0.3884681  0.2783299  1.4705882    0.00000       Uiso       1.00
       C24          C  0.3929326  0.2487774  1.4705882    0.00000       Uiso       1.00
       H15          H  0.4204012  0.2506995  1.4705882    0.00000       Uiso       1.00
       C25          C  0.1648839  0.8669990  1.4705948    0.00000       Uiso       1.00
        N7          N  0.1323867  0.8328567  1.4705942    0.00000       Uiso       1.00
       C26          C  0.1333528  0.7999112  1.4705940    0.00000       Uiso       1.00
        N8          N  0.1675526  0.8015038  1.4705946    0.00000       Uiso       1.00
       C27          C  0.2004122  0.8352382  1.4705952    0.00000       Uiso       1.00
        N9          N  0.1986814  0.8677781  1.4705954    0.00000       Uiso       1.00
        O4          O  0.1617076  0.8999971  1.4705949    0.00000       Uiso       1.00
        O5          O  0.1005386  0.7638298  1.4705936    0.00000       Uiso       1.00
        O6          O  0.2365234  0.8383462  1.4705957    0.00000       Uiso       1.00
       C28          C  0.1921911  0.9378567  1.4705955    0.00000       Uiso       1.00
       C29          C  0.0625695  0.7562840  1.4705930    0.00000       Uiso       1.00
       C30          C  0.2440560  0.8078542  1.4705957    0.00000       Uiso       1.00
       C31          C  0.2166502  0.7685047  1.4705952    0.00000       Uiso       1.00
       C32          C  0.2282070  0.7410907  1.4705952    0.00000       Uiso       1.00
       C33          C  0.2668740  0.7517902  1.4705957    0.00000       Uiso       1.00
       C34          C  0.2942456  0.7908507  1.4705963    0.00000       Uiso       1.00
       C35          C  0.2827385  0.8182588  1.4705963    0.00000       Uiso       1.00
       C36          C  0.0504480  0.7836791  1.4705929    0.00000       Uiso       1.00
       C37          C  0.0115364  0.7720907  1.4705923    0.00000       Uiso       1.00
       C38          C  0.9838261  0.7334023  1.4705917    0.00000       Uiso       1.00
       C39          C  0.9957157  0.7060531  1.4705918    0.00000       Uiso       1.00
       C40          C  0.0345588  0.7175912  1.4705924    0.00000       Uiso       1.00
       C41          C  0.2315526  0.9495817  1.4705961    0.00000       Uiso       1.00
       C42          C  0.2589552  0.9883803  1.4705966    0.00000       Uiso       1.00
       C43          C  0.2482544  0.0164132  1.4705966    0.00000       Uiso       1.00
       C44          C  0.2091911  0.0049619  1.4705961    0.00000       Uiso       1.00
       C45          C  0.1817842  0.9662085  1.4705955    0.00000       Uiso       1.00
       H16          H  0.1866085  0.7575437  1.4705946    0.00000       Uiso       1.00
       H17          H  0.2069104  0.7112980  1.4705948    0.00000       Uiso       1.00
       H18          H  0.3242702  0.8006227  1.4705968    0.00000       Uiso       1.00
       H19          H  0.3041510  0.8480051  1.4705968    0.00000       Uiso       1.00
       H20          H  0.0693741  0.8137226  1.4705932    0.00000       Uiso       1.00
       H21          H  0.0028865  0.7933738  1.4705923    0.00000       Uiso       1.00
       H22          H  0.9756718  0.6760209  1.4705914    0.00000       Uiso       1.00
       H23          H  0.0430487  0.6961926  1.4705924    0.00000       Uiso       1.00
       H24          H  0.2425559  0.9304678  1.4705962    0.00000       Uiso       1.00
       H25          H  0.2887478  0.9966910  1.4705970    0.00000       Uiso       1.00
       H26          H  0.1994222  0.0252823  1.4705960    0.00000       Uiso       1.00
       H27          H  0.1520389  0.9580618  1.4705951    0.00000       Uiso       1.00
       N10          N  0.2766977  0.7222278  1.4705960    0.00000       Uiso       1.00
       C46          C  0.3106951  0.7267222  1.4705963    0.00000       Uiso       1.00
       H28          H  0.3360591  0.7541983  1.4705968    0.00000       Uiso       1.00
       N11          N  0.9444865  0.7235240  1.4705912    0.00000       Uiso       1.00
       C47          C  0.9152203  0.6895033  1.4705906    0.00000       Uiso       1.00
       H29          H  0.9175076  0.6641434  1.4705905    0.00000       Uiso       1.00
       N12          N  0.2778251  0.0556132  1.4705971    0.00000       Uiso       1.00
       C48          C  0.2733606  0.0851656  1.4705971    0.00000       Uiso       1.00
       H30          H  0.2458921  0.0832436  1.4705969    0.00000       Uiso       1.00
       C49          C  0.8719043  0.6776124  1.4705894    0.00000       Uiso       1.00
       C50          C  0.8438369  0.6391925  1.4705889    0.00000       Uiso       1.00
       C51          C  0.8224596  0.6947520  1.4705886    0.00000       Uiso       1.00
       H31          H  0.8516790  0.6173285  1.4705893    0.00000       Uiso       1.00
       C52          C  0.8608487  0.7052915  1.4705890    0.00000       Uiso       1.00
       C53          C  0.8054480  0.6286534  1.4705881    0.00000       Uiso       1.00
       H32          H  0.8819929  0.7351131  1.4705890    0.00000       Uiso       1.00
       C54          C  0.7943915  0.6563321  1.4705882    0.00000       Uiso       1.00
       H33          H  0.7843012  0.5988322  1.4705875    0.00000       Uiso       1.00
       H34          H  0.8146142  0.7166138  1.4705886    0.00000       Uiso       1.00
       C55          C  0.3225440  0.6951873  1.4705894    0.00000       Uiso       1.00
       C56          C  0.3609511  0.7052547  1.4705889    0.00000       Uiso       1.00
       C57          C  0.3053421  0.6286915  1.4705886    0.00000       Uiso       1.00
       H35          H  0.3828338  0.7348133  1.4705893    0.00000       Uiso       1.00
       C58          C  0.2948398  0.6566384  1.4705890    0.00000       Uiso       1.00
       C59          C  0.3714528  0.6773074  1.4705881    0.00000       Uiso       1.00
       H36          H  0.2650275  0.6481820  1.4705890    0.00000       Uiso       1.00
       C60          C  0.3437491  0.6387582  1.4705882    0.00000       Uiso       1.00
       H37          H  0.4012647  0.6857609  1.4705875    0.00000       Uiso       1.00
       H38          H  0.2834614  0.5991318  1.4705886    0.00000       Uiso       1.00
       C61          C  0.3049144  0.1283404  1.4705894    0.00000       Uiso       1.00
       C62          C  0.2948737  0.1567664  1.4705889    0.00000       Uiso       1.00
       C63          C  0.3714172  0.1771739  1.4705886    0.00000       Uiso       1.00
       H39          H  0.2653230  0.1493017  1.4705892    0.00000       Uiso       1.00
       C64          C  0.3434536  0.1389100  1.4705890    0.00000       Uiso       1.00
       C65          C  0.3228377  0.1950302  1.4705881    0.00000       Uiso       1.00
       H40          H  0.3518894  0.1174827  1.4705890    0.00000       Uiso       1.00
       C66          C  0.3613773  0.2056006  1.4705882    0.00000       Uiso       1.00
       H41          H  0.3144048  0.2164599  1.4705875    0.00000       Uiso       1.00
       H42          H  0.4009691  0.1846417  1.4705886    0.00000       Uiso       1.00
