data_TpTD
_audit_creation_date              0000-00-00
_audit_creation_method            'LanYouShi'
_symmetry_space_group_name_H-M    'P1'
_cell_length_a                    38.0452995
_cell_length_b                    38.0452995
_cell_length_c                    3.4986000
_cell_angle_alpha                 90.0000000
_cell_angle_beta                  90.0000000
_cell_angle_gamma                 120.0000000
loop_
_atom_site_label
_atom_site_type_symbol
_atom_site_fract_x
_atom_site_fract_y
_atom_site_fract_z
_atom_site_U_iso_or_equiv
_atom_site_adp_type
_atom_site_occupancy
        C1          C  0.9770945  0.4580718  0.0000000    0.00000       Uiso       1.00
        C2          C  0.0197741  0.4778093  0.0000000    0.00000       Uiso       1.00
        C3          C  0.0448608  0.5207461  0.0000000    0.00000       Uiso       1.00
        C4          C  0.9114804  0.4590668  0.0000000    0.00000       Uiso       1.00
        C5          C  0.1103363  0.5194707  0.0000000    0.00000       Uiso       1.00
        C6          C  0.1529791  0.5390944  0.0000000    0.00000       Uiso       1.00
        C7          C  0.1767304  0.5816766  0.0000000    0.00000       Uiso       1.00
        C8          C  0.1561846  0.6039328  0.0000000    0.00000       Uiso       1.00
        C9          C  0.1135104  0.5840365  0.0000000    0.00000       Uiso       1.00
        N1          N  0.7823459  0.4024438  0.0000000    0.00000       Uiso       1.00
       C10          C  0.7524073  0.3629924  0.0000000    0.00000       Uiso       1.00
       C11          C  0.7099014  0.3489895  0.0000000    0.00000       Uiso       1.00
       C12          C  0.6935440  0.3754543  0.0000000    0.00000       Uiso       1.00
        H1          H  0.9627760  0.4272305  0.0000000    0.00000       Uiso       1.00
        H2          H  0.0316744  0.4590936  0.0000000    0.00000       Uiso       1.00
        H3          H  0.0960416  0.4886462  0.0000000    0.00000       Uiso       1.00
        H4          H  0.1666752  0.5217661  0.0000000    0.00000       Uiso       1.00
        H5          H  0.1718072  0.6349019  0.0000000    0.00000       Uiso       1.00
        H6          H  0.1015952  0.6027263  0.0000000    0.00000       Uiso       1.00
        H7          H  0.7613742  0.3418331  0.0000000    0.00000       Uiso       1.00
        O1          O  0.7171844  0.4131553  0.0000000    0.00000       Uiso       1.00
        H8          H  0.7734227  0.4220562  0.0000000    0.00000       Uiso       1.00
       C13          C  0.5419284  0.5190227  0.0000000    0.00000       Uiso       1.00
       C14          C  0.5221909  0.5419649  0.0000000    0.00000       Uiso       1.00
       C15          C  0.4792541  0.5241148  0.0000000    0.00000       Uiso       1.00
       C16          C  0.5409334  0.4524136  0.0000000    0.00000       Uiso       1.00
       C17          C  0.4805295  0.5908658  0.0000000    0.00000       Uiso       1.00
       C18          C  0.4609057  0.6138848  0.0000000    0.00000       Uiso       1.00
       C19          C  0.4183236  0.5950540  0.0000000    0.00000       Uiso       1.00
       C20          C  0.3960674  0.5522519  0.0000000    0.00000       Uiso       1.00
       C21          C  0.4159637  0.5294741  0.0000000    0.00000       Uiso       1.00
        N2          N  0.5975564  0.3799020  0.0000000    0.00000       Uiso       1.00
       C22          C  0.6370078  0.3894150  0.0000000    0.00000       Uiso       1.00
       C23          C  0.6510106  0.3609118  0.0000000    0.00000       Uiso       1.00
       C24          C  0.6245459  0.3180897  0.0000000    0.00000       Uiso       1.00
        H9          H  0.5727697  0.5355455  0.0000000    0.00000       Uiso       1.00
       H10          H  0.5409066  0.5725811  0.0000000    0.00000       Uiso       1.00
       H11          H  0.5113540  0.6073956  0.0000000    0.00000       Uiso       1.00
       H12          H  0.4782340  0.6449093  0.0000000    0.00000       Uiso       1.00
       H13          H  0.3650983  0.5369055  0.0000000    0.00000       Uiso       1.00
       H14          H  0.3972739  0.4988691  0.0000000    0.00000       Uiso       1.00
       H15          H  0.6581670  0.4195411  0.0000000    0.00000       Uiso       1.00
        O2          O  0.5868449  0.3040291  0.0000000    0.00000       Uiso       1.00
       H16          H  0.5779440  0.3513664  0.0000000    0.00000       Uiso       1.00
       C25          C  0.4809775  0.0229057  0.0000000    0.00000       Uiso       1.00
       C26          C  0.4580353  0.9802262  0.0000000    0.00000       Uiso       1.00
       C27          C  0.4758853  0.9551394  0.0000000    0.00000       Uiso       1.00
       C28          C  0.5475866  0.0885198  0.0000000    0.00000       Uiso       1.00
       C29          C  0.4091344  0.8896639  0.0000000    0.00000       Uiso       1.00
       C30          C  0.3861154  0.8470211  0.0000000    0.00000       Uiso       1.00
       C31          C  0.4049462  0.8232698  0.0000000    0.00000       Uiso       1.00
       C32          C  0.4477482  0.8438156  0.0000000    0.00000       Uiso       1.00
       C33          C  0.4705261  0.8864897  0.0000000    0.00000       Uiso       1.00
        N3          N  0.6200981  0.2176543  0.0000000    0.00000       Uiso       1.00
       C34          C  0.6105852  0.2475929  0.0000000    0.00000       Uiso       1.00
       C35          C  0.6390883  0.2900988  0.0000000    0.00000       Uiso       1.00
       C36          C  0.6819105  0.3064562  0.0000000    0.00000       Uiso       1.00
       H17          H  0.4644546  0.0372242  0.0000000    0.00000       Uiso       1.00
       H18          H  0.4274191  0.9683257  0.0000000    0.00000       Uiso       1.00
       H19          H  0.3926046  0.9039586  0.0000000    0.00000       Uiso       1.00
       H20          H  0.3550909  0.8333250  0.0000000    0.00000       Uiso       1.00
       H21          H  0.4630947  0.8281929  0.0000000    0.00000       Uiso       1.00
       H22          H  0.5011311  0.8984050  0.0000000    0.00000       Uiso       1.00
       H23          H  0.5804591  0.2386259  0.0000000    0.00000       Uiso       1.00
        O3          O  0.6959711  0.2828158  0.0000000    0.00000       Uiso       1.00
       H24          H  0.6486337  0.2265776  0.0000000    0.00000       Uiso       1.00
       C37          C  0.0229057  0.5419284  0.0000000    0.00000       Uiso       1.00
       C38          C  0.9802261  0.5221908  0.0000000    0.00000       Uiso       1.00
       C39          C  0.9551394  0.4792541  0.0000000    0.00000       Uiso       1.00
       C40          C  0.0885198  0.5409334  0.0000000    0.00000       Uiso       1.00
       C41          C  0.8896639  0.4805295  0.0000000    0.00000       Uiso       1.00
       C42          C  0.8470211  0.4609057  0.0000000    0.00000       Uiso       1.00
       C43          C  0.8232698  0.4183236  0.0000000    0.00000       Uiso       1.00
       C44          C  0.8438156  0.3960674  0.0000000    0.00000       Uiso       1.00
       C45          C  0.8864898  0.4159637  0.0000000    0.00000       Uiso       1.00
        N4          N  0.2176543  0.5975564  0.0000000    0.00000       Uiso       1.00
       C46          C  0.2475929  0.6370078  0.0000000    0.00000       Uiso       1.00
       C47          C  0.2900988  0.6510106  0.0000000    0.00000       Uiso       1.00
       C48          C  0.3064562  0.6245459  0.0000000    0.00000       Uiso       1.00
       H25          H  0.0372241  0.5727697  0.0000000    0.00000       Uiso       1.00
       H26          H  0.9683257  0.5409066  0.0000000    0.00000       Uiso       1.00
       H27          H  0.9039586  0.5113540  0.0000000    0.00000       Uiso       1.00
       H28          H  0.8333250  0.4782341  0.0000000    0.00000       Uiso       1.00
       H29          H  0.8281929  0.3650983  0.0000000    0.00000       Uiso       1.00
       H30          H  0.8984050  0.3972739  0.0000000    0.00000       Uiso       1.00
       H31          H  0.2386259  0.6581671  0.0000000    0.00000       Uiso       1.00
        O4          O  0.2828158  0.5868449  0.0000000    0.00000       Uiso       1.00
       H32          H  0.2265775  0.5779440  0.0000000    0.00000       Uiso       1.00
       C49          C  0.4580718  0.4809775  0.0000000    0.00000       Uiso       1.00
       C50          C  0.4778093  0.4580353  0.0000000    0.00000       Uiso       1.00
       C51          C  0.5207461  0.4758853  0.0000000    0.00000       Uiso       1.00
       C52          C  0.4590668  0.5475866  0.0000000    0.00000       Uiso       1.00
       C53          C  0.5194706  0.4091344  0.0000000    0.00000       Uiso       1.00
       C54          C  0.5390944  0.3861154  0.0000000    0.00000       Uiso       1.00
       C55          C  0.5816766  0.4049462  0.0000000    0.00000       Uiso       1.00
       C56          C  0.6039328  0.4477482  0.0000000    0.00000       Uiso       1.00
       C57          C  0.5840365  0.4705261  0.0000000    0.00000       Uiso       1.00
        N5          N  0.4024438  0.6200981  0.0000000    0.00000       Uiso       1.00
       C58          C  0.3629924  0.6105852  0.0000000    0.00000       Uiso       1.00
       C59          C  0.3489895  0.6390883  0.0000000    0.00000       Uiso       1.00
       C60          C  0.3754542  0.6819105  0.0000000    0.00000       Uiso       1.00
       H33          H  0.4272304  0.4644546  0.0000000    0.00000       Uiso       1.00
       H34          H  0.4590936  0.4274191  0.0000000    0.00000       Uiso       1.00
       H35          H  0.4886462  0.3926046  0.0000000    0.00000       Uiso       1.00
       H36          H  0.5217661  0.3550909  0.0000000    0.00000       Uiso       1.00
       H37          H  0.6349019  0.4630947  0.0000000    0.00000       Uiso       1.00
       H38          H  0.6027263  0.5011311  0.0000000    0.00000       Uiso       1.00
       H39          H  0.3418331  0.5804591  0.0000000    0.00000       Uiso       1.00
        O5          O  0.4131553  0.6959710  0.0000000    0.00000       Uiso       1.00
       H40          H  0.4220562  0.6486337  0.0000000    0.00000       Uiso       1.00
       C61          C  0.5190227  0.9770945  0.0000000    0.00000       Uiso       1.00
       C62          C  0.5419649  0.0197741  0.0000000    0.00000       Uiso       1.00
       C63          C  0.5241148  0.0448608  0.0000000    0.00000       Uiso       1.00
       C64          C  0.4524136  0.9114804  0.0000000    0.00000       Uiso       1.00
       C65          C  0.5908658  0.1103363  0.0000000    0.00000       Uiso       1.00
       C66          C  0.6138848  0.1529791  0.0000000    0.00000       Uiso       1.00
       C67          C  0.5950540  0.1767304  0.0000000    0.00000       Uiso       1.00
       C68          C  0.5522520  0.1561846  0.0000000    0.00000       Uiso       1.00
       C69          C  0.5294741  0.1135104  0.0000000    0.00000       Uiso       1.00
        N6          N  0.3799021  0.7823459  0.0000000    0.00000       Uiso       1.00
       C70          C  0.3894150  0.7524073  0.0000000    0.00000       Uiso       1.00
       C71          C  0.3609118  0.7099014  0.0000000    0.00000       Uiso       1.00
       C72          C  0.3180897  0.6935440  0.0000000    0.00000       Uiso       1.00
       H41          H  0.5355456  0.9627760  0.0000000    0.00000       Uiso       1.00
       H42          H  0.5725811  0.0316744  0.0000000    0.00000       Uiso       1.00
       H43          H  0.6073956  0.0960416  0.0000000    0.00000       Uiso       1.00
       H44          H  0.6449093  0.1666752  0.0000000    0.00000       Uiso       1.00
       H45          H  0.5369056  0.1718072  0.0000000    0.00000       Uiso       1.00
       H46          H  0.4988691  0.1015952  0.0000000    0.00000       Uiso       1.00
       H47          H  0.4195411  0.7613743  0.0000000    0.00000       Uiso       1.00
        O6          O  0.3040291  0.7171844  0.0000000    0.00000       Uiso       1.00
       H48          H  0.3513664  0.7734226  0.0000000    0.00000       Uiso       1.00
