data_TpTG-Br
_audit_creation_date              0000-00-00
_audit_creation_method            'LanYouShi'
_symmetry_space_group_name_H-M    'P1'
_cell_length_a                    10.5150995
_cell_length_b                    10.5272999
_cell_length_c                    3.3986001
_cell_angle_alpha                 90.0451965
_cell_angle_beta                  89.2379990
_cell_angle_gamma                 120.5664978
loop_
_atom_site_label
_atom_site_type_symbol
_atom_site_fract_x
_atom_site_fract_y
_atom_site_fract_z
_atom_site_U_iso_or_equiv
_atom_site_adp_type
_atom_site_occupancy
        O1          O  0.1415500  0.3517300  0.4860300    0.00000       Uiso       1.00
        C2          C  0.2465700  0.4854600  0.4834200    0.00000       Uiso       1.00
        C3          C  0.4026300  0.5246600  0.4723700    0.00000       Uiso       1.00
        O4          O  0.6585000  0.7097800  0.4596800    0.00000       Uiso       1.00
        C5          C  0.5250300  0.6799900  0.4692900    0.00000       Uiso       1.00
        C6          C  0.4873800  0.7971200  0.4776300    0.00000       Uiso       1.00
        C7          C  0.5975800  0.9446000  0.4752200    0.00000       Uiso       1.00
        C8          C  0.3323700  0.7629499  0.4888300    0.00000       Uiso       1.00
        O9          O  0.3039100  0.8669000  0.4958100    0.00000       Uiso       1.00
       C10          C  0.2139800  0.6066400  0.4915200    0.00000       Uiso       1.00
       C11          C  0.0667200  0.5681500  0.5018800    0.00000       Uiso       1.00
       N12          N  0.5529900  0.4320600  0.4508100    0.00000       Uiso       1.00
       N13          N  0.7059300  0.2006000  0.4629700    0.00000       Uiso       1.00
       N14          N  0.8104300  0.4547500  0.4713200    0.00000       Uiso       1.00
       C15          C  0.4322300  0.4115200  0.4665000    0.00000       Uiso       1.00
       N16          N  0.5777600  0.0643100  0.4762300    0.00000       Uiso       1.00
       N17          N  0.5597400  0.3043200  0.4413200    0.00000       Uiso       1.00
       C18          C  0.6927200  0.3185400  0.4477200    0.00000       Uiso       1.00
       N19          N  0.9500700  0.4757100  0.4561300    0.00000       Uiso       1.00
       H20          H  0.0362700  0.6576000  0.5215200    0.00000       Uiso       1.00
       H21          H  0.8172300  0.2129700  0.4647900    0.00000       Uiso       1.00
       H22          H  0.4564700  0.1952600  0.4288500    0.00000       Uiso       1.00
       H23          H  0.9657900  0.3793500  0.4341300    0.00000       Uiso       1.00
       H24          H  0.6488800  0.5464700  0.4449000    0.00000       Uiso       1.00
       H25          H  0.3375800  0.2920600  0.4770400    0.00000       Uiso       1.00
       H26          H  0.7186300  0.9762300  0.4698200    0.00000       Uiso       1.00
       H27          H  0.4686899  1.0544300  0.4910600    0.00000       Uiso       1.00
         H          H  0.7956900  0.5507200  0.5092900    0.00000       Uiso       1.00
        Br         Br  0.8875700  0.7355599  1.2830800    0.00000       Uiso       1.00
