data_TpTG-I
_audit_creation_date              0000-00-00
_audit_creation_method            'LanYouShi'
_symmetry_space_group_name_H-M    'P1'
_cell_length_a                    10.5699997
_cell_length_b                    10.4899998
_cell_length_c                    3.3986001
_cell_angle_alpha                 90.0451965
_cell_angle_beta                  89.2379990
_cell_angle_gamma                 120.5664978
loop_
_atom_site_label
_atom_site_type_symbol
_atom_site_fract_x
_atom_site_fract_y
_atom_site_fract_z
_atom_site_U_iso_or_equiv
_atom_site_adp_type
_atom_site_occupancy
        O1          O  0.1408148  0.3529806  0.4860300    0.00000       Uiso       1.00
        C2          C  0.2452893  0.4871862  0.4834200    0.00000       Uiso       1.00
        C3          C  0.4005387  0.5265256  0.4723700    0.00000       Uiso       1.00
        O4          O  0.6550798  0.7123038  0.4596800    0.00000       Uiso       1.00
        C5          C  0.5223030  0.6824079  0.4692900    0.00000       Uiso       1.00
        C6          C  0.4848486  0.7999544  0.4776300    0.00000       Uiso       1.00
        C7          C  0.5944762  0.9479588  0.4752200    0.00000       Uiso       1.00
        C8          C  0.3306437  0.7656628  0.4888300    0.00000       Uiso       1.00
        O9          O  0.3023315  0.8699825  0.4958100    0.00000       Uiso       1.00
       C10          C  0.2128686  0.6087971  0.4915200    0.00000       Uiso       1.00
       C11          C  0.0663734  0.5701702  0.5018800    0.00000       Uiso       1.00
       N12          N  0.5501178  0.4335963  0.4508100    0.00000       Uiso       1.00
       N13          N  0.7022634  0.2013133  0.4629700    0.00000       Uiso       1.00
       N14          N  0.8062207  0.4563670  0.4713200    0.00000       Uiso       1.00
       C15          C  0.4299850  0.4129832  0.4665000    0.00000       Uiso       1.00
       N16          N  0.5747592  0.0645387  0.4762300    0.00000       Uiso       1.00
       N17          N  0.5568327  0.3054021  0.4413200    0.00000       Uiso       1.00
       C18          C  0.6891220  0.3196726  0.4477200    0.00000       Uiso       1.00
       N19          N  0.9451354  0.4774015  0.4561300    0.00000       Uiso       1.00
       H20          H  0.0360816  0.6599383  0.5215200    0.00000       Uiso       1.00
       H21          H  0.8129854  0.2137273  0.4647900    0.00000       Uiso       1.00
       H22          H  0.4540991  0.1959543  0.4288500    0.00000       Uiso       1.00
       H23          H  0.9607737  0.3806989  0.4341300    0.00000       Uiso       1.00
       H24          H  0.6455097  0.5484131  0.4449000    0.00000       Uiso       1.00
       H25          H  0.3358266  0.2930985  0.4770400    0.00000       Uiso       1.00
       H26          H  0.7148975  0.9797013  0.4698200    0.00000       Uiso       1.00
       H27          H  0.4662556  1.0581793  0.4910600    0.00000       Uiso       1.00
         H          H  0.7915572  0.5526782  0.5092900    0.00000       Uiso       1.00
         I          I  0.9037600  0.7432100  1.2844099    0.00000       Uiso       1.00
