data_TRIPTA
_audit_creation_date              0000-00-00
_audit_creation_method            'LanYouShi'
_symmetry_space_group_name_H-M    'P1'
_cell_length_a                    18.7068996
_cell_length_b                    18.7068996
_cell_length_c                    3.5316000
_cell_angle_alpha                 90.0000000
_cell_angle_beta                  90.0000000
_cell_angle_gamma                 120.0000000
loop_
_atom_site_label
_atom_site_type_symbol
_atom_site_fract_x
_atom_site_fract_y
_atom_site_fract_z
_atom_site_U_iso_or_equiv
_atom_site_adp_type
_atom_site_occupancy
        C1          C  0.3896012  0.5496413  0.5000063    0.00000       Uiso       1.00
        C2          C  0.4503570  0.8399582  0.5000063    0.00000       Uiso       1.00
        C3          C  0.1600401  0.6103970  0.5000063    0.00000       Uiso       1.00
        N1          N  0.4698001  0.5689051  0.5000063    0.00000       Uiso       1.00
        N2          N  0.4310932  0.9008932  0.5000063    0.00000       Uiso       1.00
        N3          N  0.0991050  0.5301982  0.5000063    0.00000       Uiso       1.00
        C4          C  0.5028331  0.5188296  0.5000063    0.00000       Uiso       1.00
        C5          C  0.4811687  0.9840018  0.5000063    0.00000       Uiso       1.00
        C6          C  0.0159965  0.4971652  0.5000063    0.00000       Uiso       1.00
        C7          C  0.5896619  0.5583041  0.5000063    0.00000       Uiso       1.00
        C8          C  0.4416941  0.0313577  0.5000063    0.00000       Uiso       1.00
        C9          C  0.9686406  0.4103364  0.5000063    0.00000       Uiso       1.00
       C10          C  0.6304877  0.5123135  0.5000063    0.00000       Uiso       1.00
       C11          C  0.4876848  0.1181742  0.5000063    0.00000       Uiso       1.00
       C12          C  0.8818241  0.3695106  0.5000063    0.00000       Uiso       1.00
        H1          H  0.3452830  0.4884763  0.5000063    0.00000       Uiso       1.00
        H2          H  0.5115219  0.8568049  0.5000063    0.00000       Uiso       1.00
        H3          H  0.1431934  0.6547153  0.5000063    0.00000       Uiso       1.00
        H4          H  0.6240875  0.6214025  0.5000063    0.00000       Uiso       1.00
        H5          H  0.3785958  0.0026850  0.5000063    0.00000       Uiso       1.00
        H6          H  0.9973133  0.3759108  0.5000063    0.00000       Uiso       1.00
        H7          H  0.6936634  0.5438773  0.5000063    0.00000       Uiso       1.00
        H8          H  0.4561210  0.1497862  0.5000063    0.00000       Uiso       1.00
        H9          H  0.8502121  0.3063349  0.5000063    0.00000       Uiso       1.00
       C13          C  0.5858346  0.4247831  0.5000063    0.00000       Uiso       1.00
       C14          C  0.5752152  0.1610515  0.5000063    0.00000       Uiso       1.00
       C15          C  0.8389468  0.4141636  0.5000063    0.00000       Uiso       1.00
       C16          C  0.4984428  0.3855921  0.5000063    0.00000       Uiso       1.00
       C17          C  0.6144062  0.1128507  0.5000063    0.00000       Uiso       1.00
       C18          C  0.8871475  0.5015554  0.5000063    0.00000       Uiso       1.00
       C19          C  0.4576445  0.4316322  0.5000063    0.00000       Uiso       1.00
       C20          C  0.5683661  0.0260123  0.5000063    0.00000       Uiso       1.00
       C21          C  0.9739859  0.5423537  0.5000063    0.00000       Uiso       1.00
       H10          H  0.4631464  0.3225637  0.5000063    0.00000       Uiso       1.00
       H11          H  0.6774345  0.1405826  0.5000063    0.00000       Uiso       1.00
       H12          H  0.8594157  0.5368519  0.5000063    0.00000       Uiso       1.00
       H13          H  0.3947341  0.4004483  0.5000063    0.00000       Uiso       1.00
       H14          H  0.5995499  0.9942840  0.5000063    0.00000       Uiso       1.00
       H15          H  0.0057142  0.6052642  0.5000063    0.00000       Uiso       1.00
       H16          H  0.5090715  0.6277584  0.5000063    0.00000       Uiso       1.00
       H17          H  0.3722398  0.8813114  0.5000063    0.00000       Uiso       1.00
       H18          H  0.1186869  0.4909268  0.5000063    0.00000       Uiso       1.00
        N4          N  0.5843112  0.2946970  0.5000063    0.00000       Uiso       1.00
        N5          N  0.7053013  0.2896143  0.5000063    0.00000       Uiso       1.00
        N6          N  0.7103840  0.4156870  0.5000063    0.00000       Uiso       1.00
       C22          C  0.6268380  0.3783999  0.5000063    0.00000       Uiso       1.00
       C23          C  0.6215984  0.2484381  0.5000063    0.00000       Uiso       1.00
       C24          C  0.7515602  0.3731602  0.5000063    0.00000       Uiso       1.00
       C25          C  0.4183668  0.6957281  0.5000063    0.00000       Uiso       1.00
       C26          C  0.3042701  0.7226369  0.5000063    0.00000       Uiso       1.00
       C27          C  0.2773614  0.5816315  0.5000063    0.00000       Uiso       1.00
       C28          C  0.3631748  0.6090722  0.5000063    0.00000       Uiso       1.00
       C29          C  0.3909260  0.7541008  0.5000063    0.00000       Uiso       1.00
       C30          C  0.2458974  0.6368235  0.5000063    0.00000       Uiso       1.00
        O1          O  0.4948596  0.7232530  0.5000063    0.00000       Uiso       1.00
        O2          O  0.2767453  0.7716048  0.5000063    0.00000       Uiso       1.00
        O3          O  0.2283934  0.5051387  0.5000063    0.00000       Uiso       1.00
