data_crystal
 
_cell_length_a    25.60270
_cell_length_b    24.36410
_cell_length_c    5.60000
_cell_angle_alpha 90.00000
_cell_angle_beta  90.00000
_cell_angle_gamma 61.58780
 
_symmetry_space_group_name_Hall 'P 1'
_symmetry_space_group_name_H-M  'P 1'
 
loop_
_symmetry_equiv_pos_as_xyz
 'x,y,z' 
 
loop_
_atom_site_label
_atom_site_type_symbol
_atom_site_fract_x
_atom_site_fract_y
_atom_site_fract_z
_atom_site_charge
C          C       0.35697   0.47258   0.89008   0.0000000000
N          N       0.37122   0.52599   0.88852   0.0000000000
C          C       0.43503   0.51298   0.89033   0.0000000000
C          C       0.44918   0.56772   0.89240   0.0000000000
C          C       0.51420   0.55472   0.89554   0.0000000000
H          H       0.39445   0.42241   0.89178   0.0000000000
H          H       0.41164   0.61767   0.89179   0.0000000000
H          H       0.52475   0.59527   0.89747   0.0000000000
C          C       0.64305   0.52742   0.89535   0.0000000000
N          N       0.62877   0.47402   0.89640   0.0000000000
C          C       0.56496   0.48702   0.89555   0.0000000000
C          C       0.55082   0.43226   0.89366   0.0000000000
C          C       0.48579   0.44527   0.89073   0.0000000000
H          H       0.60561   0.57761   0.89480   0.0000000000
H          H       0.58835   0.38232   0.89400   0.0000000000
H          H       0.47524   0.40473   0.88879   0.0000000000
C          C       0.35697   0.17046   0.89534   0.0000000000
N          N       0.37122   0.10281   0.89691   0.0000000000
C          C       0.43503   0.05201   0.89509   0.0000000000
C          C       0.44918   0.98312   0.89302   0.0000000000
C          C       0.51420   0.93109   0.88988   0.0000000000
H          H       0.39445   0.18316   0.89365   0.0000000000
H          H       0.41164   0.97071   0.89363   0.0000000000
H          H       0.52475   0.88000   0.88796   0.0000000000
C          C       0.64305   0.82954   0.89008   0.0000000000
N          N       0.62877   0.89722   0.88903   0.0000000000
C          C       0.56496   0.94804   0.88987   0.0000000000
C          C       0.55082   0.01694   0.89176   0.0000000000
C          C       0.48579   0.06896   0.89470   0.0000000000
H          H       0.60561   0.81680   0.89063   0.0000000000
H          H       0.58835   0.02934   0.89143   0.0000000000
H          H       0.47524   0.12005   0.89664   0.0000000000
S          S       0.07122   0.40489   0.89375   0.0000000000
C          C       0.03007   0.48497   0.89271   0.0000000000
C          C       0.96996   0.51503   0.89272   0.0000000000
S          S       0.92881   0.47609   0.89375   0.0000000000
S          S       0.92881   0.59512   0.89168   0.0000000000
S          S       0.07122   0.52391   0.89168   0.0000000000
C          C       0.13793   0.40380   0.89319   0.0000000000
C          C       0.13793   0.45828   0.89224   0.0000000000
C          C       0.86209   0.54172   0.89319   0.0000000000
C          C       0.86209   0.59620   0.89224   0.0000000000
C          C       0.19602   0.34140   0.89377   0.0000000000
C          C       0.20903   0.29811   0.70796   0.0000000000
C          C       0.26194   0.24161   0.71076   0.0000000000
C          C       0.30239   0.22777   0.89905   0.0000000000
C          C       0.28943   0.27095   1.08465   0.0000000000
C          C       0.23654   0.32746   1.08203   0.0000000000
H          H       0.17834   0.30798   0.56101   0.0000000000
H          H       0.27142   0.20866   0.56632   0.0000000000
H          H       0.32029   0.26084   1.23114   0.0000000000
H          H       0.22714   0.36037   1.22666   0.0000000000
C          C       0.80401   0.53740   0.89377   0.0000000000
C          C       0.79100   0.50747   1.08085   0.0000000000
C          C       0.73808   0.50388   1.07910   0.0000000000
C          C       0.69764   0.53013   0.89059   0.0000000000
C          C       0.71059   0.56002   0.70372   0.0000000000
C          C       0.76349   0.56364   0.70530   0.0000000000
H          H       0.82169   0.48691   1.22799   0.0000000000
H          H       0.72861   0.48066   1.22452   0.0000000000
H          H       0.67974   0.58049   0.55705   0.0000000000
H          H       0.77289   0.58688   0.55969   0.0000000000
C          C       0.80401   0.65861   0.89166   0.0000000000
C          C       0.79100   0.70155   0.70458   0.0000000000
C          C       0.73808   0.75805   0.70633   0.0000000000
C          C       0.69764   0.77225   0.89484   0.0000000000
C          C       0.71059   0.72940   1.08171   0.0000000000
C          C       0.76349   0.67289   1.08013   0.0000000000
H          H       0.82169   0.69141   0.55744   0.0000000000
H          H       0.72861   0.79074   0.56091   0.0000000000
H          H       0.67974   0.73978   1.22838   0.0000000000
H          H       0.77289   0.64025   1.22574   0.0000000000
C          C       0.19602   0.46261   0.89166   0.0000000000
C          C       0.20903   0.49288   1.07747   0.0000000000
C          C       0.26194   0.49646   1.07467   0.0000000000
C          C       0.30239   0.46986   0.88637   0.0000000000
C          C       0.28943   0.43963   0.70078   0.0000000000
C          C       0.23654   0.43602   0.70340   0.0000000000
H          H       0.17834   0.51370   1.22441   0.0000000000
H          H       0.27142   0.51994   1.21911   0.0000000000
H          H       0.32029   0.41889   0.55429   0.0000000000
H          H       0.22714   0.41251   0.55877   0.0000000000
