data_TTF-Py-COF
_audit_creation_date              0000-00-00
_audit_creation_method            'LanYouShi'
_symmetry_space_group_name_H-M    'P1'
_cell_length_a                    27.3712997
_cell_length_b                    22.8199005
_cell_length_c                    4.7178001
_cell_angle_alpha                 90.0000000
_cell_angle_beta                  90.0000000
_cell_angle_gamma                 90.0000000
loop_
_atom_site_label
_atom_site_type_symbol
_atom_site_fract_x
_atom_site_fract_y
_atom_site_fract_z
_atom_site_U_iso_or_equiv
_atom_site_adp_type
_atom_site_occupancy
        C1          C  0.7273212  0.1942946  0.0887203    0.00000       Uiso       1.00
        C1          C  0.2726785  0.8057033  0.0887203    0.00000       Uiso       1.00
        C1          C  0.2726785  0.1942946 -0.0887203    0.00000       Uiso       1.00
        C1          C  0.7273212  0.8057033 -0.0887203    0.00000       Uiso       1.00
        N1          N  0.7267575  0.2464350 -0.0479201    0.00000       Uiso       1.00
        N1          N  0.2732422  0.7535630 -0.0479201    0.00000       Uiso       1.00
        N1          N  0.2732422  0.2464350  0.0479201    0.00000       Uiso       1.00
        N1          N  0.7267575  0.7535630  0.0479201    0.00000       Uiso       1.00
        C1          C  0.6959499  0.2926752 -0.0256200    0.00000       Uiso       1.00
        C2          C  0.3652669  0.6054915 -0.0119747    0.00000       Uiso       1.00
        C3          C  0.3040499  0.7073228 -0.0256200    0.00000       Uiso       1.00
        C4          C  0.6347328  0.3945065 -0.0119747    0.00000       Uiso       1.00
        C5          C  0.3040499  0.2926752  0.0256200    0.00000       Uiso       1.00
        C6          C  0.6347328  0.6054915  0.0119747    0.00000       Uiso       1.00
        C7          C  0.6959499  0.7073228  0.0256200    0.00000       Uiso       1.00
        C8          C  0.3652669  0.3945065  0.0119747    0.00000       Uiso       1.00
        C9          C  0.7036422  0.3393111 -0.2154709    0.00000       Uiso       1.00
       C10          C  0.3715514  0.6517224  0.1847631    0.00000       Uiso       1.00
       C11          C  0.2963575  0.6606869 -0.2154709    0.00000       Uiso       1.00
       C12          C  0.6284483  0.3482756  0.1847631    0.00000       Uiso       1.00
       C13          C  0.2963575  0.3393111  0.2154709    0.00000       Uiso       1.00
       C14          C  0.6284483  0.6517224 -0.1847631    0.00000       Uiso       1.00
       C15          C  0.7036422  0.6606869  0.2154709    0.00000       Uiso       1.00
       C16          C  0.3715514  0.3482756 -0.1847631    0.00000       Uiso       1.00
       C17          C  0.6732154  0.3890283 -0.2113828    0.00000       Uiso       1.00
       C18          C  0.3422089  0.7023677  0.1745795    0.00000       Uiso       1.00
       C19          C  0.3267843  0.6109697 -0.2113828    0.00000       Uiso       1.00
       C20          C  0.6577908  0.2976302  0.1745795    0.00000       Uiso       1.00
       C21          C  0.3267843  0.3890283  0.2113828    0.00000       Uiso       1.00
       C22          C  0.6577908  0.7023677 -0.1745795    0.00000       Uiso       1.00
       C23          C  0.6732154  0.6109697  0.2113828    0.00000       Uiso       1.00
       C24          C  0.3422089  0.2976302 -0.1745795    0.00000       Uiso       1.00
        H1          H  0.7001861  0.1848747  0.2306215    0.00000       Uiso       1.00
        H2          H  0.2998136  0.8151233  0.2306215    0.00000       Uiso       1.00
        H3          H  0.2998136  0.1848747 -0.2306215    0.00000       Uiso       1.00
        H4          H  0.7001861  0.8151233 -0.2306215    0.00000       Uiso       1.00
        H5          H  0.7313963  0.3369527 -0.3604614    0.00000       Uiso       1.00
        H6          H  0.3976330  0.6487558  0.3397247    0.00000       Uiso       1.00
        H7          H  0.2686034  0.6630453 -0.3604614    0.00000       Uiso       1.00
        H8          H  0.6023667  0.3512422  0.3397247    0.00000       Uiso       1.00
        H9          H  0.2686034  0.3369527  0.3604614    0.00000       Uiso       1.00
       H10          H  0.6023667  0.6487558 -0.3397247    0.00000       Uiso       1.00
       H11          H  0.7313963  0.6630453  0.3604614    0.00000       Uiso       1.00
       H12          H  0.3976330  0.3512422 -0.3397247    0.00000       Uiso       1.00
       H13          H  0.6793687  0.4213410 -0.3577816    0.00000       Uiso       1.00
       H14          H  0.3485997  0.7349874  0.3177448    0.00000       Uiso       1.00
       H15          H  0.3206311  0.5786570 -0.3577816    0.00000       Uiso       1.00
       H16          H  0.6514000  0.2650105  0.3177448    0.00000       Uiso       1.00
       H17          H  0.3206311  0.4213410  0.3577816    0.00000       Uiso       1.00
       H18          H  0.6514000  0.7349874 -0.3177448    0.00000       Uiso       1.00
       H19          H  0.6793687  0.5786570  0.3577816    0.00000       Uiso       1.00
       H20          H  0.3485997  0.2650105 -0.3177448    0.00000       Uiso       1.00
        S1          S  0.9413199  0.9369747  0.0042266    0.00000       Uiso       1.00
        S2          S  0.0586797  0.0630232  0.0042266    0.00000       Uiso       1.00
        S3          S  0.0586797  0.9369747 -0.0042266    0.00000       Uiso       1.00
        S4          S  0.9413199  0.0630232 -0.0042266    0.00000       Uiso       1.00
       C25          C  0.9752519  0.0000000  0.0000000    0.00000       Uiso       1.00
       C26          C  0.0247478  0.0000000  0.0000000    0.00000       Uiso       1.00
       C27          C  0.8837447  0.9691069  0.0048447    0.00000       Uiso       1.00
       C28          C  0.1162550  0.0308912  0.0048447    0.00000       Uiso       1.00
       C29          C  0.1162550  0.9691069 -0.0048447    0.00000       Uiso       1.00
       C30          C  0.8837447  0.0308912 -0.0048447    0.00000       Uiso       1.00
       C31          C  0.8431155  0.9305505  0.0007506    0.00000       Uiso       1.00
       C32          C  0.1568842  0.0694475  0.0007506    0.00000       Uiso       1.00
       C33          C  0.1568842  0.9305505 -0.0007506    0.00000       Uiso       1.00
       C34          C  0.8431155  0.0694475 -0.0007506    0.00000       Uiso       1.00
       C35          C  0.8421871  0.8789121  0.1677574    0.00000       Uiso       1.00
       C36          C  0.1578126  0.1210859  0.1677574    0.00000       Uiso       1.00
       C37          C  0.1578126  0.8789121 -0.1677574    0.00000       Uiso       1.00
       C38          C  0.8421871  0.1210859 -0.1677574    0.00000       Uiso       1.00
       C39          C  0.8038629  0.8379598  0.1442364    0.00000       Uiso       1.00
       C40          C  0.1961368  0.1620383  0.1442364    0.00000       Uiso       1.00
       C41          C  0.1961368  0.8379598 -0.1442364    0.00000       Uiso       1.00
       C42          C  0.8038629  0.1620383 -0.1442364    0.00000       Uiso       1.00
       C43          C  0.7647268  0.8472739 -0.0465179    0.00000       Uiso       1.00
       C44          C  0.2352729  0.1527240 -0.0465179    0.00000       Uiso       1.00
       C45          C  0.2352729  0.8472739  0.0465179    0.00000       Uiso       1.00
       C46          C  0.7647268  0.1527240  0.0465179    0.00000       Uiso       1.00
       C47          C  0.7642846  0.9000442 -0.2031508    0.00000       Uiso       1.00
       C48          C  0.2357152  0.0999537 -0.2031508    0.00000       Uiso       1.00
       C49          C  0.2357152  0.9000442  0.2031508    0.00000       Uiso       1.00
       C50          C  0.7642846  0.0999537  0.2031508    0.00000       Uiso       1.00
       C51          C  0.8026909  0.9406080 -0.1786361    0.00000       Uiso       1.00
       C52          C  0.1973088  0.0593900 -0.1786361    0.00000       Uiso       1.00
       C53          C  0.1973088  0.9406080  0.1786361    0.00000       Uiso       1.00
       C54          C  0.8026909  0.0593900  0.1786361    0.00000       Uiso       1.00
       H21          H  0.8699583  0.8703481  0.3075860    0.00000       Uiso       1.00
       H22          H  0.1300414  0.1296498  0.3075860    0.00000       Uiso       1.00
       H23          H  0.1300414  0.8703481 -0.3075860    0.00000       Uiso       1.00
       H24          H  0.8699583  0.1296498 -0.3075860    0.00000       Uiso       1.00
       H25          H  0.8050710  0.8008779  0.2662364    0.00000       Uiso       1.00
       H26          H  0.1949288  0.1991202  0.2662364    0.00000       Uiso       1.00
       H27          H  0.1949288  0.8008779 -0.2662364    0.00000       Uiso       1.00
       H28          H  0.8050710  0.1991202 -0.2662364    0.00000       Uiso       1.00
       H29          H  0.7362826  0.9091838 -0.3402624    0.00000       Uiso       1.00
       H30          H  0.2637171  0.0908142 -0.3402624    0.00000       Uiso       1.00
       H31          H  0.2637171  0.9091838  0.3402624    0.00000       Uiso       1.00
       H32          H  0.7362826  0.0908142  0.3402624    0.00000       Uiso       1.00
       H33          H  0.8011174  0.9776188 -0.2966655    0.00000       Uiso       1.00
       H34          H  0.1988822  0.0223792 -0.2966655    0.00000       Uiso       1.00
       H35          H  0.1988822  0.9776188  0.2966655    0.00000       Uiso       1.00
       H36          H  0.8011174  0.0223792  0.2966655    0.00000       Uiso       1.00
       C55          C  0.6049060  0.4455895 -0.0068626    0.00000       Uiso       1.00
       C56          C  0.5527351  0.4459355 -0.0057468    0.00000       Uiso       1.00
       C57          C  0.5254194  0.6065388  0.0109335    0.00000       Uiso       1.00
       H37          H  0.5418757  0.6464193  0.0295673    0.00000       Uiso       1.00
       C58          C  0.3950936  0.5544085 -0.0068626    0.00000       Uiso       1.00
       C59          C  0.4472646  0.5540625 -0.0057468    0.00000       Uiso       1.00
       C60          C  0.4745803  0.3934592  0.0109335    0.00000       Uiso       1.00
       H38          H  0.4581240  0.3535786  0.0295673    0.00000       Uiso       1.00
       C61          C  0.3950936  0.4455895  0.0068626    0.00000       Uiso       1.00
       C62          C  0.4472646  0.4459355  0.0057468    0.00000       Uiso       1.00
       C63          C  0.4745803  0.6065388 -0.0109335    0.00000       Uiso       1.00
       H39          H  0.4581240  0.6464193 -0.0295673    0.00000       Uiso       1.00
       C64          C  0.6049060  0.5544085  0.0068626    0.00000       Uiso       1.00
       C65          C  0.5527351  0.5540625  0.0057468    0.00000       Uiso       1.00
       C66          C  0.5254194  0.3934592 -0.0109335    0.00000       Uiso       1.00
       H40          H  0.5418757  0.3535786 -0.0295673    0.00000       Uiso       1.00
       C67          C  0.6293759  0.4999990  0.0000000    0.00000       Uiso       1.00
       C68          C  0.5263047  0.4999990  0.0000000    0.00000       Uiso       1.00
       H41          H  0.6668679  0.4999990  0.0000000    0.00000       Uiso       1.00
       C69          C  0.3706238  0.4999990  0.0000000    0.00000       Uiso       1.00
       C70          C  0.4736951  0.4999990  0.0000000    0.00000       Uiso       1.00
       H42          H  0.3331318  0.4999990  0.0000000    0.00000       Uiso       1.00
