data_crystal
 
_cell_length_a    24.42060
_cell_length_b    6.76450
_cell_length_c    24.42130
_cell_angle_alpha 90.00000
_cell_angle_beta  81.91170
_cell_angle_gamma 90.00000
 
_symmetry_space_group_name_Hall 'P 1'
_symmetry_space_group_name_H-M  'P 1'
 
loop_
_symmetry_equiv_pos_as_xyz
 'x,y,z' 
 
loop_
_atom_site_label
_atom_site_type_symbol
_atom_site_fract_x
_atom_site_fract_y
_atom_site_fract_z
_atom_site_charge
C          C       0.47428   0.50000   0.48993   0.0000000000
C          C       0.01007   0.50000   0.02572   0.0000000000
C          C       0.52572   0.50000   0.51007   0.0000000000
C          C       0.98993   0.50000   0.97428   0.0000000000
C          C       0.58706   0.50000   0.57476   0.0000000000
C          C       0.92524   0.50000   0.91294   0.0000000000
C          C       0.41294   0.50000   0.42524   0.0000000000
C          C       0.07476   0.50000   0.08706   0.0000000000
C          C       0.53215   0.50000   0.56603   0.0000000000
C          C       0.93397   0.50000   0.96785   0.0000000000
C          C       0.46785   0.50000   0.43397   0.0000000000
C          C       0.06603   0.50000   0.03215   0.0000000000
C          C       0.62305   0.50000   0.52534   0.0000000000
C          C       0.97465   0.50000   0.87695   0.0000000000
C          C       0.37695   0.50000   0.47465   0.0000000000
C          C       0.02535   0.50000   0.12305   0.0000000000
C          C       0.94013   0.50000   0.62066   0.0000000000
C          C       0.87934   0.50000   0.55988   0.0000000000
C          C       0.05987   0.50000   0.37934   0.0000000000
C          C       0.12066   0.50000   0.44012   0.0000000000
C          C       0.88695   0.50000   0.65040   0.0000000000
C          C       0.84959   0.50000   0.61305   0.0000000000
C          C       0.11304   0.50000   0.34959   0.0000000000
C          C       0.15041   0.50000   0.38695   0.0000000000
H          H       0.87669   0.50000   0.69243   0.0000000000
H          H       0.80756   0.50000   0.62331   0.0000000000
H          H       0.12331   0.50000   0.30757   0.0000000000
H          H       0.19243   0.50000   0.37668   0.0000000000
N          N       0.05707   0.50000   0.55708   0.0000000000
N          N       0.94293   0.50000   0.44292   0.0000000000
C          C       0.04327   0.50000   0.61284   0.0000000000
C          C       0.88716   0.50000   0.45673   0.0000000000
C          C       0.95673   0.50000   0.38716   0.0000000000
C          C       0.11284   0.50000   0.54327   0.0000000000
C          C       0.09262   0.50000   0.63556   0.0000000000
C          C       0.86444   0.50000   0.40739   0.0000000000
C          C       0.90738   0.50000   0.36444   0.0000000000
C          C       0.13556   0.50000   0.59261   0.0000000000
H          H       0.09698   0.50000   0.67658   0.0000000000
H          H       0.82341   0.50000   0.40304   0.0000000000
H          H       0.90302   0.50000   0.32341   0.0000000000
H          H       0.17659   0.50000   0.59696   0.0000000000
C          C       0.98987   0.50000   0.64407   0.0000000000
C          C       0.85593   0.50000   0.51013   0.0000000000
C          C       0.01013   0.50000   0.35592   0.0000000000
C          C       0.14406   0.50000   0.48987   0.0000000000
C          C       0.98586   0.50000   0.70237   0.0000000000
C          C       0.79764   0.50000   0.51414   0.0000000000
C          C       0.01414   0.50000   0.29763   0.0000000000
C          C       0.20236   0.50000   0.48585   0.0000000000
C          C       0.98397   0.31982   0.73179   0.0000000000
C          C       0.76822   0.68018   0.51603   0.0000000000
C          C       0.01603   0.31982   0.26821   0.0000000000
C          C       0.23178   0.68018   0.48396   0.0000000000
C          C       0.01603   0.68018   0.26821   0.0000000000
C          C       0.23178   0.31982   0.48396   0.0000000000
C          C       0.98397   0.68018   0.73179   0.0000000000
C          C       0.76822   0.31982   0.51603   0.0000000000
H          H       0.98541   0.18797   0.71110   0.0000000000
H          H       0.78891   0.81202   0.51460   0.0000000000
H          H       0.01459   0.18797   0.28890   0.0000000000
H          H       0.21108   0.81202   0.48540   0.0000000000
H          H       0.01459   0.81203   0.28890   0.0000000000
H          H       0.21108   0.18798   0.48540   0.0000000000
H          H       0.98541   0.81203   0.71110   0.0000000000
H          H       0.78891   0.18798   0.51460   0.0000000000
C          C       0.98028   0.31990   0.78982   0.0000000000
C          C       0.71018   0.68011   0.51972   0.0000000000
C          C       0.01972   0.31990   0.21017   0.0000000000
C          C       0.28982   0.68011   0.48028   0.0000000000
C          C       0.01972   0.68010   0.21017   0.0000000000
C          C       0.28982   0.31989   0.48028   0.0000000000
C          C       0.98028   0.68010   0.78982   0.0000000000
C          C       0.71018   0.31989   0.51972   0.0000000000
H          H       0.97922   0.18825   0.81058   0.0000000000
H          H       0.68943   0.81175   0.52078   0.0000000000
H          H       0.02078   0.18825   0.18942   0.0000000000
H          H       0.31057   0.81175   0.47922   0.0000000000
H          H       0.02078   0.81175   0.18942   0.0000000000
H          H       0.31057   0.18825   0.47922   0.0000000000
H          H       0.97922   0.81175   0.81058   0.0000000000
H          H       0.68943   0.18825   0.52078   0.0000000000
C          C       0.97831   0.50000   0.81920   0.0000000000
C          C       0.68080   0.50000   0.52169   0.0000000000
C          C       0.02169   0.50000   0.18079   0.0000000000
C          C       0.31920   0.50000   0.47831   0.0000000000
H          H       0.59943   0.50000   0.61305   0.0000000000
H          H       0.49993   0.50000   0.59767   0.0000000000
H          H       0.88695   0.50000   0.90057   0.0000000000
H          H       0.90233   0.50000   0.00007   0.0000000000
H          H       0.40057   0.50000   0.38695   0.0000000000
H          H       0.50006   0.50000   0.40233   0.0000000000
H          H       0.11305   0.50000   0.09942   0.0000000000
H          H       0.09767   0.50000   0.99993   0.0000000000
S          S       0.41055   0.50000   0.53259   0.0000000000
S          S       0.96741   0.50000   0.08945   0.0000000000
S          S       0.58945   0.50000   0.46741   0.0000000000
S          S       0.03259   0.50000   0.91055   0.0000000000
N          N       0.93327   0.50000   0.56673   0.0000000000
N          N       0.06673   0.50000   0.43326   0.0000000000
H          H       0.96357   0.50000   0.53642   0.0000000000
H          H       0.03643   0.50000   0.46358   0.0000000000
