data_crystal
 
_cell_length_a    25.80590
_cell_length_b    25.80590
_cell_length_c    3.52050
_cell_angle_alpha 90.00000
_cell_angle_beta  90.00000
_cell_angle_gamma 120.00000
 
_symmetry_space_group_name_Hall 'P 1'
_symmetry_space_group_name_H-M  'P 1'
 
loop_
_symmetry_equiv_pos_as_xyz
 'x,y,z' 
 
loop_
_atom_site_label
_atom_site_type_symbol
_atom_site_fract_x
_atom_site_fract_y
_atom_site_fract_z
_atom_site_charge
C          C       0.02144   0.55837   0.50000   0.0000000000
N          N       0.98027   0.49931   0.50000   0.0000000000
C          C       0.44163   0.46307   0.50000   0.0000000000
N          N       0.50069   0.48095   0.50000   0.0000000000
C          C       0.53693   0.97856   0.50000   0.0000000000
N          N       0.51905   0.01973   0.50000   0.0000000000
H          H       0.00747   0.58910   0.50000   0.0000000000
H          H       0.41090   0.41837   0.50000   0.0000000000
H          H       0.58163   0.99253   0.50000   0.0000000000
C          C       0.12479   0.64120   0.50000   0.0000000000
C          C       0.18683   0.66289   0.50000   0.0000000000
C          C       0.89007   0.40751   0.50000   0.0000000000
C          C       0.82716   0.37333   0.50000   0.0000000000
C          C       0.35880   0.48359   0.50000   0.0000000000
C          C       0.33711   0.52394   0.50000   0.0000000000
C          C       0.59249   0.48256   0.50000   0.0000000000
C          C       0.62667   0.45383   0.50000   0.0000000000
C          C       0.51641   0.87521   0.50000   0.0000000000
C          C       0.47606   0.81317   0.50000   0.0000000000
C          C       0.51744   0.10993   0.50000   0.0000000000
C          C       0.54617   0.17284   0.50000   0.0000000000
H          H       0.11015   0.67147   0.50000   0.0000000000
H          H       0.21497   0.70824   0.50000   0.0000000000
H          H       0.91448   0.38619   0.50000   0.0000000000
H          H       0.80760   0.32770   0.50000   0.0000000000
H          H       0.32853   0.43868   0.50000   0.0000000000
H          H       0.29176   0.50674   0.50000   0.0000000000
H          H       0.61381   0.52829   0.50000   0.0000000000
H          H       0.67230   0.47990   0.50000   0.0000000000
H          H       0.56132   0.88985   0.50000   0.0000000000
H          H       0.49326   0.78503   0.50000   0.0000000000
H          H       0.47171   0.08552   0.50000   0.0000000000
H          H       0.52010   0.19240   0.50000   0.0000000000
C          C       0.43312   0.89365   0.50000   0.0000000000
C          C       0.39283   0.83160   0.50000   0.0000000000
C          C       0.61383   0.11518   0.50000   0.0000000000
C          C       0.64259   0.17810   0.50000   0.0000000000
C          C       0.10635   0.53947   0.50000   0.0000000000
C          C       0.16840   0.56122   0.50000   0.0000000000
C          C       0.88482   0.49865   0.50000   0.0000000000
C          C       0.82190   0.46448   0.50000   0.0000000000
C          C       0.46053   0.56688   0.50000   0.0000000000
C          C       0.43877   0.60717   0.50000   0.0000000000
C          C       0.50135   0.38617   0.50000   0.0000000000
C          C       0.53552   0.35741   0.50000   0.0000000000
H          H       0.41628   0.92210   0.50000   0.0000000000
H          H       0.34799   0.81721   0.50000   0.0000000000
H          H       0.63946   0.09531   0.50000   0.0000000000
H          H       0.68837   0.20164   0.50000   0.0000000000
H          H       0.07790   0.49418   0.50000   0.0000000000
H          H       0.18279   0.53078   0.50000   0.0000000000
H          H       0.90469   0.54415   0.50000   0.0000000000
H          H       0.79836   0.48673   0.50000   0.0000000000
H          H       0.50582   0.58372   0.50000   0.0000000000
H          H       0.46922   0.65201   0.50000   0.0000000000
H          H       0.45585   0.36053   0.50000   0.0000000000
H          H       0.51327   0.31163   0.50000   0.0000000000
C          C       0.37274   0.72735   0.50000   0.0000000000
C          C       0.27265   0.64538   0.50000   0.0000000000
C          C       0.35462   0.62726   0.50000   0.0000000000
C          C       0.49566   0.91659   0.50000   0.0000000000
C          C       0.08341   0.57907   0.50000   0.0000000000
C          C       0.42093   0.50433   0.50000   0.0000000000
C          C       0.41330   0.78984   0.50000   0.0000000000
C          C       0.21016   0.62347   0.50000   0.0000000000
C          C       0.37653   0.58670   0.50000   0.0000000000
N          N       0.39218   0.68731   0.50000   0.0000000000
N          N       0.31269   0.70488   0.50000   0.0000000000
N          N       0.29512   0.60782   0.50000   0.0000000000
C          C       0.63850   0.27183   0.50000   0.0000000000
C          C       0.72817   0.36667   0.50000   0.0000000000
C          C       0.63333   0.36150   0.50000   0.0000000000
C          C       0.55076   0.08031   0.50000   0.0000000000
C          C       0.91969   0.47045   0.50000   0.0000000000
C          C       0.52955   0.44924   0.50000   0.0000000000
C          C       0.60949   0.20849   0.50000   0.0000000000
C          C       0.79151   0.40101   0.50000   0.0000000000
C          C       0.59899   0.39051   0.50000   0.0000000000
N          N       0.60702   0.30100   0.50000   0.0000000000
N          N       0.69900   0.30602   0.50000   0.0000000000
N          N       0.69398   0.39298   0.50000   0.0000000000
