data_ZnP-COF
_audit_creation_date              0000-00-00
_audit_creation_method            'LanYouShi'
_symmetry_space_group_name_H-M    'P1'
_cell_length_a                    35.3513985
_cell_length_b                    35.4280014
_cell_length_c                    6.7872000
_cell_angle_alpha                 90.0000000
_cell_angle_beta                  90.0000000
_cell_angle_gamma                 90.0000000
loop_
_atom_site_label
_atom_site_type_symbol
_atom_site_fract_x
_atom_site_fract_y
_atom_site_fract_z
_atom_site_U_iso_or_equiv
_atom_site_adp_type
_atom_site_occupancy
        C1          C  0.7120198  0.7400970  0.5000011    0.00000       Uiso       1.00
        C1          C  0.2120194  0.2400974  0.5000011    0.00000       Uiso       1.00
        C1          C  0.2879810  0.2599023  0.5000011    0.00000       Uiso       1.00
        C1          C  0.7879814  0.7599020  0.5000011    0.00000       Uiso       1.00
        C1          C  0.2879810  0.7400970  0.5000011    0.00000       Uiso       1.00
        C1          C  0.7879814  0.2400974  0.5000011    0.00000       Uiso       1.00
        C1          C  0.7120198  0.2599023  0.5000011    0.00000       Uiso       1.00
        C1          C  0.2120194  0.7599020  0.5000011    0.00000       Uiso       1.00
        O1          O  0.6772954  0.7244766  0.5000011    0.00000       Uiso       1.00
        O1          O  0.1772949  0.2244770  0.5000011    0.00000       Uiso       1.00
        O1          O  0.3227055  0.2755226  0.5000011    0.00000       Uiso       1.00
        O1          O  0.8227059  0.7755223  0.5000011    0.00000       Uiso       1.00
        O1          O  0.3227055  0.7244766  0.5000011    0.00000       Uiso       1.00
        O1          O  0.8227059  0.2244770  0.5000011    0.00000       Uiso       1.00
        O1          O  0.6772954  0.2755226  0.5000011    0.00000       Uiso       1.00
        O1          O  0.1772949  0.7755223  0.5000011    0.00000       Uiso       1.00
        C1          C  0.7211916  0.7786705  0.5000011    0.00000       Uiso       1.00
        C2          C  0.2211912  0.2786708  0.5000011    0.00000       Uiso       1.00
        C3          C  0.2788092  0.2213288  0.5000011    0.00000       Uiso       1.00
        C4          C  0.7788096  0.7213284  0.5000011    0.00000       Uiso       1.00
        C5          C  0.2788092  0.7786705  0.5000011    0.00000       Uiso       1.00
        C6          C  0.7788096  0.2786708  0.5000011    0.00000       Uiso       1.00
        C7          C  0.7211916  0.2213288  0.5000011    0.00000       Uiso       1.00
        C8          C  0.2211912  0.7213284  0.5000011    0.00000       Uiso       1.00
        C9          C  0.7598243  0.7879241  0.5000011    0.00000       Uiso       1.00
       C10          C  0.2598240  0.2879245  0.5000011    0.00000       Uiso       1.00
       C11          C  0.2401764  0.2120752  0.5000011    0.00000       Uiso       1.00
       C12          C  0.7401769  0.7120748  0.5000011    0.00000       Uiso       1.00
       C13          C  0.2401764  0.7879241  0.5000011    0.00000       Uiso       1.00
       C14          C  0.7401769  0.2879245  0.5000011    0.00000       Uiso       1.00
       C15          C  0.7598243  0.2120752  0.5000011    0.00000       Uiso       1.00
       C16          C  0.2598240  0.7120748  0.5000011    0.00000       Uiso       1.00
        H1          H  0.7007974  0.7989669  0.5000011    0.00000       Uiso       1.00
        H2          H  0.2007971  0.2989672  0.5000011    0.00000       Uiso       1.00
        H3          H  0.2992033  0.2010325  0.5000011    0.00000       Uiso       1.00
        H4          H  0.7992038  0.7010321  0.5000011    0.00000       Uiso       1.00
        H5          H  0.2992033  0.7989669  0.5000011    0.00000       Uiso       1.00
        H6          H  0.7992038  0.2989672  0.5000011    0.00000       Uiso       1.00
        H7          H  0.7007974  0.2010325  0.5000011    0.00000       Uiso       1.00
        H8          H  0.2007971  0.7010321  0.5000011    0.00000       Uiso       1.00
       C17          C  0.5817937  0.4683485  0.5000011    0.00000       Uiso       1.00
       C18          C  0.0817933  0.9683482  0.5000011    0.00000       Uiso       1.00
       C19          C  0.4182071  0.5316508  0.5000011    0.00000       Uiso       1.00
       C20          C  0.9182075  0.0316512  0.5000011    0.00000       Uiso       1.00
       C21          C  0.4182071  0.4683485  0.5000011    0.00000       Uiso       1.00
       C22          C  0.9182075  0.9683482  0.5000011    0.00000       Uiso       1.00
       C23          C  0.5817937  0.5316508  0.5000011    0.00000       Uiso       1.00
       C24          C  0.0817933  0.0316512  0.5000011    0.00000       Uiso       1.00
       C25          C  0.6193345  0.4805487  0.5000011    0.00000       Uiso       1.00
       C26          C  0.1193340  0.9805484  0.5000011    0.00000       Uiso       1.00
       C27          C  0.3806664  0.5194505  0.5000011    0.00000       Uiso       1.00
       C28          C  0.8806667  0.0194509  0.5000011    0.00000       Uiso       1.00
       C29          C  0.3806664  0.4805487  0.5000011    0.00000       Uiso       1.00
       C30          C  0.8806667  0.9805484  0.5000011    0.00000       Uiso       1.00
       C31          C  0.6193345  0.5194505  0.5000011    0.00000       Uiso       1.00
       C32          C  0.1193340  0.0194509  0.5000011    0.00000       Uiso       1.00
        H9          H  0.6430137  0.4640013  0.5000011    0.00000       Uiso       1.00
       H10          H  0.1430133  0.9640009  0.5000011    0.00000       Uiso       1.00
       H11          H  0.3569871  0.5359980  0.5000011    0.00000       Uiso       1.00
       H12          H  0.8569875  0.0359984  0.5000011    0.00000       Uiso       1.00
       H13          H  0.3569871  0.4640013  0.5000011    0.00000       Uiso       1.00
       H14          H  0.8569875  0.9640009  0.5000011    0.00000       Uiso       1.00
       H15          H  0.6430137  0.5359980  0.5000011    0.00000       Uiso       1.00
       H16          H  0.1430133  0.0359984  0.5000011    0.00000       Uiso       1.00
        N1          N  0.0000000  0.9405937  0.5000011    0.00000       Uiso       1.00
        N2          N  0.5000004  0.4405940  0.5000011    0.00000       Uiso       1.00
        N3          N  0.0000000  0.0594057  0.5000011    0.00000       Uiso       1.00
        N4          N  0.5000004  0.5594053  0.5000011    0.00000       Uiso       1.00
       C33          C  0.0315139  0.9187517  0.5000011    0.00000       Uiso       1.00
       C34          C  0.5315143  0.4187521  0.5000011    0.00000       Uiso       1.00
       C35          C  0.9684869  0.0812475  0.5000011    0.00000       Uiso       1.00
       C36          C  0.4684865  0.5812472  0.5000011    0.00000       Uiso       1.00
       C37          C  0.9684869  0.9187517  0.5000011    0.00000       Uiso       1.00
       C38          C  0.4684865  0.4187521  0.5000011    0.00000       Uiso       1.00
       C39          C  0.0315139  0.0812475  0.5000011    0.00000       Uiso       1.00
       C40          C  0.5315143  0.5812472  0.5000011    0.00000       Uiso       1.00
       C41          C  0.0194479  0.8812400  0.5000011    0.00000       Uiso       1.00
       C42          C  0.5194483  0.3812403  0.5000011    0.00000       Uiso       1.00
       C43          C  0.9805529  0.1187593  0.5000011    0.00000       Uiso       1.00
       C44          C  0.4805525  0.6187590  0.5000011    0.00000       Uiso       1.00
       C45          C  0.9805529  0.8812400  0.5000011    0.00000       Uiso       1.00
       C46          C  0.4805525  0.3812403  0.5000011    0.00000       Uiso       1.00
       C47          C  0.0194479  0.1187593  0.5000011    0.00000       Uiso       1.00
       C48          C  0.5194483  0.6187590  0.5000011    0.00000       Uiso       1.00
       H17          H  0.0360572  0.8576164  0.5000011    0.00000       Uiso       1.00
       H18          H  0.5360576  0.3576168  0.5000011    0.00000       Uiso       1.00
       H19          H  0.9639437  0.1423829  0.5000011    0.00000       Uiso       1.00
       H20          H  0.4639432  0.6423826  0.5000011    0.00000       Uiso       1.00
       H21          H  0.9639437  0.8576164  0.5000011    0.00000       Uiso       1.00
       H22          H  0.4639432  0.3576168  0.5000011    0.00000       Uiso       1.00
       H23          H  0.0360572  0.1423829  0.5000011    0.00000       Uiso       1.00
       H24          H  0.5360576  0.6423826  0.5000011    0.00000       Uiso       1.00
       C49          C  0.5698472  0.4302646  0.5000011    0.00000       Uiso       1.00
       C50          C  0.0698468  0.9302642  0.5000011    0.00000       Uiso       1.00
       C51          C  0.4301536  0.5697348  0.5000011    0.00000       Uiso       1.00
       C52          C  0.9301540  0.0697351  0.5000011    0.00000       Uiso       1.00
       C53          C  0.4301536  0.4302646  0.5000011    0.00000       Uiso       1.00
       C54          C  0.9301540  0.9302642  0.5000011    0.00000       Uiso       1.00
       C55          C  0.5698472  0.5697348  0.5000011    0.00000       Uiso       1.00
       C56          C  0.0698468  0.0697351  0.5000011    0.00000       Uiso       1.00
       C57          C  0.5980745  0.4020150  0.5000011    0.00000       Uiso       1.00
       C58          C  0.0980741  0.9020146  0.5000011    0.00000       Uiso       1.00
       C59          C  0.4019262  0.5979844  0.5000011    0.00000       Uiso       1.00
       C60          C  0.9019266  0.0979847  0.5000011    0.00000       Uiso       1.00
       C61          C  0.4019262  0.4020150  0.5000011    0.00000       Uiso       1.00
       C62          C  0.9019266  0.9020146  0.5000011    0.00000       Uiso       1.00
       C63          C  0.5980745  0.5979844  0.5000011    0.00000       Uiso       1.00
       C64          C  0.0980741  0.0979847  0.5000011    0.00000       Uiso       1.00
       C65          C  0.6123326  0.3877465  0.6795504    0.00000       Uiso       1.00
       C66          C  0.1123322  0.8877461  0.6795504    0.00000       Uiso       1.00
       C67          C  0.3876682  0.6122528  0.6795504    0.00000       Uiso       1.00
       C68          C  0.8876686  0.1122532  0.6795504    0.00000       Uiso       1.00
       C69          C  0.3876682  0.3877465  0.3204519    0.00000       Uiso       1.00
       C70          C  0.8876686  0.8877461  0.3204519    0.00000       Uiso       1.00
       C71          C  0.6123326  0.6122528  0.3204519    0.00000       Uiso       1.00
       C72          C  0.1123322  0.1122532  0.3204519    0.00000       Uiso       1.00
       C73          C  0.3876682  0.6122528  0.3204519    0.00000       Uiso       1.00
       C74          C  0.8876686  0.1122532  0.3204519    0.00000       Uiso       1.00
       C75          C  0.6123326  0.3877465  0.3204519    0.00000       Uiso       1.00
       C76          C  0.1123322  0.8877461  0.3204519    0.00000       Uiso       1.00
       C77          C  0.6123326  0.6122528  0.6795504    0.00000       Uiso       1.00
       C78          C  0.1123322  0.1122532  0.6795504    0.00000       Uiso       1.00
       C79          C  0.3876682  0.3877465  0.6795504    0.00000       Uiso       1.00
       C80          C  0.8876686  0.8877461  0.6795504    0.00000       Uiso       1.00
       H25          H  0.6022995  0.3977916  0.8109412    0.00000       Uiso       1.00
       H26          H  0.1022991  0.8977912  0.8109412    0.00000       Uiso       1.00
       H27          H  0.3977014  0.6022077  0.8109412    0.00000       Uiso       1.00
       H28          H  0.8977017  0.1022081  0.8109412    0.00000       Uiso       1.00
       H29          H  0.3977014  0.3977916  0.1890611    0.00000       Uiso       1.00
       H30          H  0.8977017  0.8977912  0.1890611    0.00000       Uiso       1.00
       H31          H  0.6022995  0.6022077  0.1890611    0.00000       Uiso       1.00
       H32          H  0.1022991  0.1022081  0.1890611    0.00000       Uiso       1.00
       H33          H  0.3977014  0.6022077  0.1890611    0.00000       Uiso       1.00
       H34          H  0.8977017  0.1022081  0.1890611    0.00000       Uiso       1.00
       H35          H  0.6022995  0.3977916  0.1890611    0.00000       Uiso       1.00
       H36          H  0.1022991  0.8977912  0.1890611    0.00000       Uiso       1.00
       H37          H  0.6022995  0.6022077  0.8109412    0.00000       Uiso       1.00
       H38          H  0.1022991  0.1022081  0.8109412    0.00000       Uiso       1.00
       H39          H  0.3977014  0.3977916  0.8109412    0.00000       Uiso       1.00
       H40          H  0.8977017  0.8977912  0.8109412    0.00000       Uiso       1.00
       C81          C  0.6404461  0.3596111  0.6795255    0.00000       Uiso       1.00
       C82          C  0.1404458  0.8596107  0.6795255    0.00000       Uiso       1.00
       C83          C  0.3595546  0.6403882  0.6795255    0.00000       Uiso       1.00
       C84          C  0.8595551  0.1403885  0.6795255    0.00000       Uiso       1.00
       C85          C  0.3595546  0.3596111  0.3204769    0.00000       Uiso       1.00
       C86          C  0.8595551  0.8596107  0.3204769    0.00000       Uiso       1.00
       C87          C  0.6404461  0.6403882  0.3204769    0.00000       Uiso       1.00
       C88          C  0.1404458  0.1403885  0.3204769    0.00000       Uiso       1.00
       C89          C  0.3595546  0.6403882  0.3204769    0.00000       Uiso       1.00
       C90          C  0.8595551  0.1403885  0.3204769    0.00000       Uiso       1.00
       C91          C  0.6404461  0.3596111  0.3204769    0.00000       Uiso       1.00
       C92          C  0.1404458  0.8596107  0.3204769    0.00000       Uiso       1.00
       C93          C  0.6404461  0.6403882  0.6795255    0.00000       Uiso       1.00
       C94          C  0.1404458  0.1403885  0.6795255    0.00000       Uiso       1.00
       C95          C  0.3595546  0.3596111  0.6795255    0.00000       Uiso       1.00
       C96          C  0.8595551  0.8596107  0.6795255    0.00000       Uiso       1.00
       H41          H  0.6504802  0.3495700  0.8109127    0.00000       Uiso       1.00
       H42          H  0.1504799  0.8495696  0.8109127    0.00000       Uiso       1.00
       H43          H  0.3495205  0.6504293  0.8109127    0.00000       Uiso       1.00
       H44          H  0.8495209  0.1504297  0.8109127    0.00000       Uiso       1.00
       H45          H  0.3495205  0.3495700  0.1890896    0.00000       Uiso       1.00
       H46          H  0.8495209  0.8495696  0.1890896    0.00000       Uiso       1.00
       H47          H  0.6504802  0.6504293  0.1890896    0.00000       Uiso       1.00
       H48          H  0.1504799  0.1504297  0.1890896    0.00000       Uiso       1.00
       H49          H  0.3495205  0.6504293  0.1890896    0.00000       Uiso       1.00
       H50          H  0.8495209  0.1504297  0.1890896    0.00000       Uiso       1.00
       H51          H  0.6504802  0.3495700  0.1890896    0.00000       Uiso       1.00
       H52          H  0.1504799  0.8495696  0.1890896    0.00000       Uiso       1.00
       H53          H  0.6504802  0.6504293  0.8109127    0.00000       Uiso       1.00
       H54          H  0.1504799  0.1504297  0.8109127    0.00000       Uiso       1.00
       H55          H  0.3495205  0.3495700  0.8109127    0.00000       Uiso       1.00
       H56          H  0.8495209  0.8495696  0.8109127    0.00000       Uiso       1.00
       C97          C  0.6546963  0.3453511  0.5000011    0.00000       Uiso       1.00
       C98          C  0.1546959  0.8453507  0.5000011    0.00000       Uiso       1.00
       C99          C  0.3453045  0.6546482  0.5000011    0.00000       Uiso       1.00
      C100          C  0.8453049  0.1546486  0.5000011    0.00000       Uiso       1.00
      C101          C  0.3453045  0.3453511  0.5000011    0.00000       Uiso       1.00
      C102          C  0.8453049  0.8453507  0.5000011    0.00000       Uiso       1.00
      C103          C  0.6546963  0.6546482  0.5000011    0.00000       Uiso       1.00
      C104          C  0.1546959  0.1546486  0.5000011    0.00000       Uiso       1.00
        O2          O  0.7753869  0.8226147  0.5000011    0.00000       Uiso       1.00
        O2          O  0.2753865  0.3226150  0.5000011    0.00000       Uiso       1.00
        O2          O  0.2246139  0.1773847  0.5000011    0.00000       Uiso       1.00
        O2          O  0.7246143  0.6773843  0.5000011    0.00000       Uiso       1.00
        O2          O  0.2246139  0.8226147  0.5000011    0.00000       Uiso       1.00
        O2          O  0.7246143  0.3226150  0.5000011    0.00000       Uiso       1.00
        O2          O  0.7753869  0.1773847  0.5000011    0.00000       Uiso       1.00
        O2          O  0.2753865  0.6773843  0.5000011    0.00000       Uiso       1.00
        B1          B  0.8155866  0.8156164  0.5000011    0.00000       Uiso       1.00
        B1          B  0.3155861  0.3156167  0.5000011    0.00000       Uiso       1.00
        B1          B  0.1844142  0.1843829  0.5000011    0.00000       Uiso       1.00
        B1          B  0.6844146  0.6843826  0.5000011    0.00000       Uiso       1.00
        B1          B  0.1844142  0.8156164  0.5000011    0.00000       Uiso       1.00
        B1          B  0.6844146  0.3156167  0.5000011    0.00000       Uiso       1.00
        B1          B  0.8155866  0.1843829  0.5000011    0.00000       Uiso       1.00
        B1          B  0.3155861  0.6843826  0.5000011    0.00000       Uiso       1.00
        N1          N  0.5604990  0.4999997  0.5000011    0.00000       Uiso       1.00
        N1          N  0.0604986  0.0000000  0.5000011    0.00000       Uiso       1.00
        N1          N  0.4395018  0.4999997  0.5000011    0.00000       Uiso       1.00
        N1          N  0.9395022  0.0000000  0.5000011    0.00000       Uiso       1.00
        H5          H  0.5330559  0.4999997  0.5000011    0.00000       Uiso       1.00
        H5          H  0.0330555  0.0000000  0.5000011    0.00000       Uiso       1.00
        H5          H  0.4669449  0.4999997  0.5000011    0.00000       Uiso       1.00
        H5          H  0.9669453  0.0000000  0.5000011    0.00000       Uiso       1.00
