data_ZnPc-COF
_audit_creation_date              0000-00-00
_audit_creation_method            'LanYouShi'
_symmetry_space_group_name_H-M    'P1'
_cell_length_a                    46.2444992
_cell_length_b                    3.5706999
_cell_length_c                    46.2262993
_cell_angle_alpha                 90.0000000
_cell_angle_beta                  89.9856033
_cell_angle_gamma                 90.0000000
loop_
_atom_site_label
_atom_site_type_symbol
_atom_site_fract_x
_atom_site_fract_y
_atom_site_fract_z
_atom_site_U_iso_or_equiv
_atom_site_adp_type
_atom_site_occupancy
        N1          N  0.5417508  0.5000060  0.4999782    0.00000       Uiso       1.00
        N2          N  0.5509049  0.5000060  0.5508655    0.00000       Uiso       1.00
        C1          C  0.5232548  0.5000060  0.5594468    0.00000       Uiso       1.00
        C2          C  0.5147353  0.5000060  0.5896804    0.00000       Uiso       1.00
        C3          C  0.4851558  0.5000060  0.5895795    0.00000       Uiso       1.00
        C4          C  0.4768440  0.5000060  0.5593089    0.00000       Uiso       1.00
        C5          C  0.4689263  0.5000060  0.6151682    0.00000       Uiso       1.00
        C6          C  0.4847076  0.5000060  0.6409793    0.00000       Uiso       1.00
        C7          C  0.5147666  0.5000060  0.6410934    0.00000       Uiso       1.00
        C8          C  0.5307595  0.5000060  0.6153979    0.00000       Uiso       1.00
        O1          O  0.5262460  0.5000060  0.6686426    0.00000       Uiso       1.00
        B1          B  0.4995507  0.5000060  0.6856367    0.00000       Uiso       1.00
        O2          O  0.4730020  0.5000060  0.6684365    0.00000       Uiso       1.00
        N3          N  0.5504163  0.5000060  0.9486444    0.00000       Uiso       1.00
        C9          C  0.5227097  0.5000060  0.9402580    0.00000       Uiso       1.00
        N4          N  0.4996502  0.5000060  0.9583666    0.00000       Uiso       1.00
       C10          C  0.4762897  0.5000060  0.9406180    0.00000       Uiso       1.00
       C11          C  0.4844929  0.5000060  0.9102715    0.00000       Uiso       1.00
       C12          C  0.5140716  0.5000060  0.9101077    0.00000       Uiso       1.00
       C13          C  0.5300896  0.5000060  0.8844091    0.00000       Uiso       1.00
       C14          C  0.5141261  0.5000060  0.8587337    0.00000       Uiso       1.00
       C15          C  0.4840668  0.5000060  0.8588267    0.00000       Uiso       1.00
       C16          C  0.4682582  0.5000060  0.8846626    0.00000       Uiso       1.00
       C17          C  0.4403454  0.5000060  0.9772459    0.00000       Uiso       1.00
       C18          C  0.3843501  0.5000060  0.9701577    0.00000       Uiso       1.00
       C19          C  0.3587682  0.5000060  0.9863499    0.00000       Uiso       1.00
        N5          N  0.4487256  0.5000060  0.9495109    0.00000       Uiso       1.00
        O3          O  0.5256678  0.5000060  0.8312172    0.00000       Uiso       1.00
        B2          B  0.4990292  0.5000060  0.8141744    0.00000       Uiso       1.00
       C20          C  0.4992006  0.5000060  0.7803394    0.00000       Uiso       1.00
       C21          C  0.4730462  0.5000060  0.7648864    0.00000       Uiso       1.00
       C22          C  0.5256883  0.5000060  0.7349206    0.00000       Uiso       1.00
       C23          C  0.5255406  0.5000060  0.7651101    0.00000       Uiso       1.00
        O4          O  0.4724237  0.5000060  0.8313273    0.00000       Uiso       1.00
        H1          H  0.4455523  0.5000060  0.6152164    0.00000       Uiso       1.00
        H2          H  0.5541301  0.5000060  0.6156346    0.00000       Uiso       1.00
        H3          H  0.4448840  0.5000060  0.8845992    0.00000       Uiso       1.00
        H4          H  0.5534588  0.5000060  0.8841916    0.00000       Uiso       1.00
        H5          H  0.5463694  0.5000060  0.7237053    0.00000       Uiso       1.00
        H6          H  0.5461130  0.5000060  0.7765210    0.00000       Uiso       1.00
        N6          H  0.4526649  0.5000060  0.7232849    0.00000       Uiso       1.00
        N7          H  0.4523968  0.5000060  0.7760915    0.00000       Uiso       1.00
       C24          C  0.0235842  0.5000060  0.5591509    0.00000       Uiso       1.00
       C25          C  0.0154967  0.5000060  0.5894788    0.00000       Uiso       1.00
       C26          C  0.0163321  0.5000060  0.6408735    0.00000       Uiso       1.00
       C27          C  0.0319197  0.5000060  0.6149455    0.00000       Uiso       1.00
        H7          H  0.0552971  0.5000060  0.6148250    0.00000       Uiso       1.00
        N8          N  0.0002081  0.5000060  0.5414589    0.00000       Uiso       1.00
        N9          N  0.0516553  0.5000060  0.9498180    0.00000       Uiso       1.00
       C28          C  0.0241658  0.5000060  0.9407632    0.00000       Uiso       1.00
       N10          N  0.0006896  0.5000060  0.9583629    0.00000       Uiso       1.00
       C29          C  0.9859211  0.5000060  0.5897966    0.00000       Uiso       1.00
        O5          O  0.9750186  0.5000060  0.6688575    0.00000       Uiso       1.00
        B3          B  0.0018426  0.5000060  0.6856480    0.00000       Uiso       1.00
        O6          O  0.0282443  0.5000060  0.6682390    0.00000       Uiso       1.00
       C30          C  0.0161798  0.5000060  0.9103700    0.00000       Uiso       1.00
       C31          C  0.9866040  0.5000060  0.9099987    0.00000       Uiso       1.00
       C32          C  0.9777570  0.5000060  0.9401102    0.00000       Uiso       1.00
       C33          C  0.9707952  0.5000060  0.8841753    0.00000       Uiso       1.00
       C35          C  0.0170277  0.5000060  0.8589278    0.00000       Uiso       1.00
       C36          C  0.0326263  0.5000060  0.8848839    0.00000       Uiso       1.00
       C34          C  0.9869716  0.5000060  0.8586277    0.00000       Uiso       1.00
        O7          O  0.0288706  0.5000060  0.8315046    0.00000       Uiso       1.00
        B4          B  0.0023929  0.5000060  0.8141800    0.00000       Uiso       1.00
       C37          C  0.0023441  0.5000060  0.7803517    0.00000       Uiso       1.00
       C38          C  0.9760153  0.5000060  0.7651157    0.00000       Uiso       1.00
       C39          C  0.9758735  0.5000060  0.7349470    0.00000       Uiso       1.00
       C40          C  0.0020547  0.5000060  0.7194691    0.00000       Uiso       1.00
       C41          C  0.0283683  0.5000060  0.7346863    0.00000       Uiso       1.00
        O8          O  0.9756420  0.5000060  0.8310443    0.00000       Uiso       1.00
        H8          H  0.9467192  0.5000060  0.6160101    0.00000       Uiso       1.00
        H9          H  0.9474216  0.5000060  0.8837593    0.00000       Uiso       1.00
       H10          H  0.0560037  0.5000060  0.8850389    0.00000       Uiso       1.00
       H11          H  0.9551796  0.5000060  0.7237639    0.00000       Uiso       1.00
       H12          H  0.9554180  0.5000060  0.7764933    0.00000       Uiso       1.00
       N11          H  0.0489195  0.5000060  0.7232965    0.00000       Uiso       1.00
       N12          H  0.0491600  0.5000060  0.7760974    0.00000       Uiso       1.00
       C42          C  0.4994968  0.5000060  0.7194635    0.00000       Uiso       1.00
       C43          C  0.4731983  0.5000060  0.7346858    0.00000       Uiso       1.00
       C44          C  0.0285117  0.5000060  0.7648918    0.00000       Uiso       1.00
       N13          N  0.4586712  0.5000060  0.4997471    0.00000       Uiso       1.00
       N14          N  0.4495257  0.5000060  0.4488743    0.00000       Uiso       1.00
       C45          C  0.4771796  0.5000060  0.4403077    0.00000       Uiso       1.00
       C46          C  0.4856817  0.5000060  0.4100831    0.00000       Uiso       1.00
       C47          C  0.5152572  0.5000060  0.4101603    0.00000       Uiso       1.00
       C48          C  0.5235820  0.5000060  0.4404283    0.00000       Uiso       1.00
       C49          C  0.5314623  0.5000060  0.3845533    0.00000       Uiso       1.00
       C50          C  0.5156496  0.5000060  0.3587642    0.00000       Uiso       1.00
       C51          C  0.4855894  0.5000060  0.3586812    0.00000       Uiso       1.00
       C52          C  0.4696255  0.5000060  0.3843933    0.00000       Uiso       1.00
        O9          O  0.4740884  0.5000060  0.3311437    0.00000       Uiso       1.00
        B5          B  0.5007730  0.5000060  0.3141375    0.00000       Uiso       1.00
       O10          O  0.5273228  0.5000060  0.3313013    0.00000       Uiso       1.00
       N15          N  0.4496891  0.5000060  0.0512244    0.00000       Uiso       1.00
       C53          C  0.4773830  0.5000060  0.0596088    0.00000       Uiso       1.00
       N16          N  0.5004422  0.5000060  0.0414944    0.00000       Uiso       1.00
       C54          C  0.5237941  0.5000060  0.0592359    0.00000       Uiso       1.00
       C55          C  0.5155966  0.5000060  0.0895799    0.00000       Uiso       1.00
       C56          C  0.4860171  0.5000060  0.0897699    0.00000       Uiso       1.00
       C57          C  0.4700197  0.5000060  0.1154965    0.00000       Uiso       1.00
       C58          C  0.4860226  0.5000060  0.1411414    0.00000       Uiso       1.00
       C59          C  0.5160810  0.5000060  0.1410096    0.00000       Uiso       1.00
       C60          C  0.5318577  0.5000060  0.1151613    0.00000       Uiso       1.00
       C61          C  0.5597546  0.5000060  0.0226200    0.00000       Uiso       1.00
       C62          C  0.6157218  0.5000060  0.0297474    0.00000       Uiso       1.00
       C63          C  0.6413240  0.5000060  0.0135813    0.00000       Uiso       1.00
       N17          N  0.5513608  0.5000060  0.0503493    0.00000       Uiso       1.00
       O11          O  0.4745169  0.5000060  0.1686619    0.00000       Uiso       1.00
        B6          B  0.5011737  0.5000060  0.1856606    0.00000       Uiso       1.00
       C64          C  0.5010263  0.5000060  0.2194630    0.00000       Uiso       1.00
       C65          C  0.5271996  0.5000060  0.2348811    0.00000       Uiso       1.00
       C66          C  0.4745848  0.5000060  0.2648971    0.00000       Uiso       1.00
       C67          C  0.4746979  0.5000060  0.2347181    0.00000       Uiso       1.00
       O12          O  0.5277505  0.5000060  0.1684844    0.00000       Uiso       1.00
       H13          H  0.5548396  0.5000060  0.3844773    0.00000       Uiso       1.00
       H14          H  0.4462503  0.5000060  0.3842258    0.00000       Uiso       1.00
       H15          H  0.5552353  0.5000060  0.1151607    0.00000       Uiso       1.00
       H16          H  0.4466446  0.5000060  0.1157767    0.00000       Uiso       1.00
       H17          H  0.4539060  0.5000060  0.2761187    0.00000       Uiso       1.00
       H18          H  0.4540993  0.5000060  0.2233503    0.00000       Uiso       1.00
       N18          H  0.5476533  0.5000060  0.2764139    0.00000       Uiso       1.00
       N19          H  0.5478440  0.5000060  0.2236569    0.00000       Uiso       1.00
       C68          C  0.9761648  0.5000060  0.4406272    0.00000       Uiso       1.00
       C69          C  0.9842688  0.5000060  0.4103019    0.00000       Uiso       1.00
       C70          C  0.9834875  0.5000060  0.3589095    0.00000       Uiso       1.00
       C71          C  0.9678701  0.5000060  0.3848234    0.00000       Uiso       1.00
       H19          H  0.9444926  0.5000060  0.3849333    0.00000       Uiso       1.00
       N20          N  0.9995350  0.5000060  0.4583245    0.00000       Uiso       1.00
       N21          N  0.9484631  0.5000060  0.0500146    0.00000       Uiso       1.00
       C72          C  0.9759610  0.5000060  0.0590658    0.00000       Uiso       1.00
       N22          N  0.9994236  0.5000060  0.0414664    0.00000       Uiso       1.00
       C73          C  0.0138447  0.5000060  0.4100035    0.00000       Uiso       1.00
       O13          O  0.0248423  0.5000060  0.3309790    0.00000       Uiso       1.00
        B7          B  0.9980461  0.5000060  0.3141582    0.00000       Uiso       1.00
       O14          O  0.9716144  0.5000060  0.3315269    0.00000       Uiso       1.00
       C74          C  0.9839211  0.5000060  0.0894598    0.00000       Uiso       1.00
       C75          C  0.0134965  0.5000060  0.0898282    0.00000       Uiso       1.00
       C76          C  0.0223666  0.5000060  0.0597231    0.00000       Uiso       1.00
       C77          C  0.0293027  0.5000060  0.1156546    0.00000       Uiso       1.00
       C79          C  0.9830621  0.5000060  0.1408928    0.00000       Uiso       1.00
       C80          C  0.9674708  0.5000060  0.1149404    0.00000       Uiso       1.00
       C78          C  0.0131187  0.5000060  0.1412045    0.00000       Uiso       1.00
       O15          O  0.9712013  0.5000060  0.1683051    0.00000       Uiso       1.00
        B8          B  0.9976665  0.5000060  0.1856440    0.00000       Uiso       1.00
       C81          C  0.9976713  0.5000060  0.2194690    0.00000       Uiso       1.00
       C82          C  0.0239819  0.5000060  0.2347315    0.00000       Uiso       1.00
       C83          C  0.0240944  0.5000060  0.2648995    0.00000       Uiso       1.00
       C84          C  0.9978924  0.5000060  0.2803461    0.00000       Uiso       1.00
       C85          C  0.9715970  0.5000060  0.2651082    0.00000       Uiso       1.00
       O16          O  0.0244307  0.5000060  0.1687958    0.00000       Uiso       1.00
       H20          H  0.0530744  0.5000060  0.3838306    0.00000       Uiso       1.00
       H21          H  0.0526726  0.5000060  0.1160493    0.00000       Uiso       1.00
       H22          H  0.9440897  0.5000060  0.1148063    0.00000       Uiso       1.00
       H23          H  0.0447786  0.5000060  0.2761064    0.00000       Uiso       1.00
       H24          H  0.0445879  0.5000060  0.2233771    0.00000       Uiso       1.00
       N23          H  0.9510370  0.5000060  0.2764896    0.00000       Uiso       1.00
       N24          H  0.9508469  0.5000060  0.2236925    0.00000       Uiso       1.00
       C86          C  0.5007981  0.5000060  0.2803245    0.00000       Uiso       1.00
       C87          C  0.5270855  0.5000060  0.2650657    0.00000       Uiso       1.00
       C88          C  0.9714866  0.5000060  0.2349049    0.00000       Uiso       1.00
       Ni1         Zn  0.5000564  0.5000060  0.9999308    0.00000       Uiso       1.00
       Ni2         Zn  0.0000681  0.5000060  0.9999156    0.00000       Uiso       1.00
       N25          N  0.5003251  0.5000060  0.4582979    0.00000       Uiso       1.00
       N26          N  0.5511758  0.5000060  0.4491432    0.00000       Uiso       1.00
       C89          C  0.5597336  0.5000060  0.4768021    0.00000       Uiso       1.00
       C90          C  0.5899357  0.5000060  0.4852813    0.00000       Uiso       1.00
       C91          C  0.5898593  0.5000060  0.5148694    0.00000       Uiso       1.00
       C92          C  0.5596117  0.5000060  0.5232362    0.00000       Uiso       1.00
       C93          C  0.6154503  0.5000060  0.5310530    0.00000       Uiso       1.00
       C94          C  0.6412268  0.5000060  0.5152127    0.00000       Uiso       1.00
       C95          C  0.6413102  0.5000060  0.4851397    0.00000       Uiso       1.00
       C96          C  0.6156088  0.5000060  0.4691933    0.00000       Uiso       1.00
       O17          O  0.6688364  0.5000060  0.4736069    0.00000       Uiso       1.00
        B9          B  0.6858341  0.5000060  0.5002891    0.00000       Uiso       1.00
       O18          O  0.6686798  0.5000060  0.5268732    0.00000       Uiso       1.00
       N27          N  0.9486303  0.5000060  0.4495364    0.00000       Uiso       1.00
       C97          C  0.9402474  0.5000060  0.4772471    0.00000       Uiso       1.00
       N28          N  0.9583359  0.5000060  0.5003104    0.00000       Uiso       1.00
       C98          C  0.9405863  0.5000060  0.5236768    0.00000       Uiso       1.00
       C99          C  0.9102556  0.5000060  0.5154774    0.00000       Uiso       1.00
      C100          C  0.9101086  0.5000060  0.4858864    0.00000       Uiso       1.00
      C101          C  0.8844347  0.5000060  0.4698552    0.00000       Uiso       1.00
      C102          C  0.8587747  0.5000060  0.4858271    0.00000       Uiso       1.00
      C103          C  0.8588452  0.5000060  0.5158978    0.00000       Uiso       1.00
      C104          C  0.8846508  0.5000060  0.5317199    0.00000       Uiso       1.00
      C105          C  0.9771782  0.5000060  0.5596232    0.00000       Uiso       1.00
      C106          C  0.9700895  0.5000060  0.6156318    0.00000       Uiso       1.00
      C107          C  0.9862768  0.5000060  0.6412134    0.00000       Uiso       1.00
       N29          N  0.9494562  0.5000060  0.5512502    0.00000       Uiso       1.00
       O19          O  0.8312924  0.5000060  0.4742756    0.00000       Uiso       1.00
       B10          B  0.8142456  0.5000060  0.5009122    0.00000       Uiso       1.00
      C108          C  0.7804551  0.5000060  0.5006928    0.00000       Uiso       1.00
      C109          C  0.7649751  0.5000060  0.5268426    0.00000       Uiso       1.00
      C110          C  0.7351099  0.5000060  0.4741421    0.00000       Uiso       1.00
      C111          C  0.7652804  0.5000060  0.4743168    0.00000       Uiso       1.00
       O20          O  0.8313578  0.5000060  0.5275299    0.00000       Uiso       1.00
       H25          H  0.6155180  0.5000060  0.5544340    0.00000       Uiso       1.00
       H26          H  0.6158000  0.5000060  0.4458111    0.00000       Uiso       1.00
       H27          H  0.8845808  0.5000060  0.5551087    0.00000       Uiso       1.00
       H28          H  0.8842243  0.5000060  0.4464710    0.00000       Uiso       1.00
       H29          H  0.7239255  0.5000060  0.4534458    0.00000       Uiso       1.00
       H30          H  0.7767067  0.5000060  0.4537356    0.00000       Uiso       1.00
       N30          H  0.7233923  0.5000060  0.5471982    0.00000       Uiso       1.00
       N31          H  0.7761437  0.5000060  0.5475151    0.00000       Uiso       1.00
      C112          C  0.5593138  0.5000060  0.9761897    0.00000       Uiso       1.00
      C113          C  0.5896357  0.5000060  0.9842955    0.00000       Uiso       1.00
      C114          C  0.6410239  0.5000060  0.9835148    0.00000       Uiso       1.00
      C115          C  0.6151249  0.5000060  0.9678943    0.00000       Uiso       1.00
       H31          H  0.6150599  0.5000060  0.9445089    0.00000       Uiso       1.00
       N32          N  0.5416160  0.5000060  0.9995767    0.00000       Uiso       1.00
       N33          N  0.9499882  0.5000060  0.9483315    0.00000       Uiso       1.00
      C116          C  0.9409270  0.5000060  0.9758344    0.00000       Uiso       1.00
       N34          N  0.9585114  0.5000060  0.9993026    0.00000       Uiso       1.00
      C117          C  0.5899200  0.5000060  0.0138856    0.00000       Uiso       1.00
       O21          O  0.6689534  0.5000060  0.0248673    0.00000       Uiso       1.00
       B11          B  0.6857783  0.5000060  0.9980488    0.00000       Uiso       1.00
       O22          O  0.6684011  0.5000060  0.9716184    0.00000       Uiso       1.00
      C118          C  0.9105393  0.5000060  0.9838061    0.00000       Uiso       1.00
      C119          C  0.9101451  0.5000060  0.0133921    0.00000       Uiso       1.00
      C120          C  0.9402481  0.5000060  0.0222507    0.00000       Uiso       1.00
      C121          C  0.8843063  0.5000060  0.0291921    0.00000       Uiso       1.00
      C123          C  0.8591120  0.5000060  0.9829249    0.00000       Uiso       1.00
      C124          C  0.8850803  0.5000060  0.9673434    0.00000       Uiso       1.00
      C122          C  0.8587728  0.5000060  0.0129925    0.00000       Uiso       1.00
       O23          O  0.8317100  0.5000060  0.9710436    0.00000       Uiso       1.00
       B12          B  0.8143473  0.5000060  0.9975237    0.00000       Uiso       1.00
      C125          C  0.7805092  0.5000060  0.9975465    0.00000       Uiso       1.00
      C126          C  0.7652609  0.5000060  0.0238818    0.00000       Uiso       1.00
      C127          C  0.7350911  0.5000060  0.0240239    0.00000       Uiso       1.00
      C128          C  0.7196304  0.5000060  0.9978335    0.00000       Uiso       1.00
      C129          C  0.7348686  0.5000060  0.9715089    0.00000       Uiso       1.00
       O24          O  0.8311712  0.5000060  0.0242991    0.00000       Uiso       1.00
       H32          H  0.6160618  0.5000060  0.0531256    0.00000       Uiso       1.00
       H33          H  0.8838716  0.5000060  0.0525713    0.00000       Uiso       1.00
       H34          H  0.8852493  0.5000060  0.9439607    0.00000       Uiso       1.00
       H35          H  0.7238776  0.5000060  0.0447191    0.00000       Uiso       1.00
       H36          H  0.7766304  0.5000060  0.0444815    0.00000       Uiso       1.00
       N35          H  0.7234753  0.5000060  0.9509509    0.00000       Uiso       1.00
       N36          H  0.7762871  0.5000060  0.9507174    0.00000       Uiso       1.00
      C130          C  0.7196326  0.5000060  0.5003341    0.00000       Uiso       1.00
      C131          C  0.7348045  0.5000060  0.5266587    0.00000       Uiso       1.00
      C132          C  0.7650716  0.5000060  0.9713686    0.00000       Uiso       1.00
       N37          N  0.5000988  0.5000060  0.5414513    0.00000       Uiso       1.00
       N38          N  0.4492447  0.5000060  0.5505804    0.00000       Uiso       1.00
      C133          C  0.4406958  0.5000060  0.5229145    0.00000       Uiso       1.00
      C134          C  0.4104981  0.5000060  0.5144153    0.00000       Uiso       1.00
      C135          C  0.4105504  0.5000060  0.4848255    0.00000       Uiso       1.00
      C136          C  0.4408101  0.5000060  0.4764860    0.00000       Uiso       1.00
      C137          C  0.3849309  0.5000060  0.4686462    0.00000       Uiso       1.00
      C138          C  0.3591688  0.5000060  0.4845169    0.00000       Uiso       1.00
      C139          C  0.3591458  0.5000060  0.5145892    0.00000       Uiso       1.00
      C140          C  0.3848487  0.5000060  0.5305116    0.00000       Uiso       1.00
       O25          O  0.3316685  0.5000060  0.5261740    0.00000       Uiso       1.00
       B13          B  0.3146062  0.5000060  0.4995384    0.00000       Uiso       1.00
       O26          O  0.3316829  0.5000060  0.4729156    0.00000       Uiso       1.00
       N39          N  0.0511104  0.5000060  0.5502390    0.00000       Uiso       1.00
      C141          C  0.0594872  0.5000060  0.5225285    0.00000       Uiso       1.00
       N40          N  0.0414013  0.5000060  0.4994664    0.00000       Uiso       1.00
      C142          C  0.0591586  0.5000060  0.4761061    0.00000       Uiso       1.00
      C143          C  0.0894904  0.5000060  0.4843099    0.00000       Uiso       1.00
      C144          C  0.0896160  0.5000060  0.5138968    0.00000       Uiso       1.00
      C145          C  0.1152642  0.5000060  0.5299492    0.00000       Uiso       1.00
      C146          C  0.1409305  0.5000060  0.5140033    0.00000       Uiso       1.00
      C147          C  0.1409130  0.5000060  0.4839312    0.00000       Uiso       1.00
      C148          C  0.1151117  0.5000060  0.4680846    0.00000       Uiso       1.00
      C149          C  0.0225738  0.5000060  0.4401664    0.00000       Uiso       1.00
      C150          C  0.0297040  0.5000060  0.3841907    0.00000       Uiso       1.00
      C151          C  0.0135440  0.5000060  0.3586019    0.00000       Uiso       1.00
       N41          N  0.0502920  0.5000060  0.4485375    0.00000       Uiso       1.00
       O27          O  0.1683748  0.5000060  0.5256067    0.00000       Uiso       1.00
       B14          B  0.1854838  0.5000060  0.4990149    0.00000       Uiso       1.00
      C152          C  0.2192682  0.5000060  0.4994598    0.00000       Uiso       1.00
      C153          C  0.2350577  0.5000060  0.4734816    0.00000       Uiso       1.00
      C154          C  0.2657961  0.5000060  0.5261049    0.00000       Uiso       1.00
      C155          C  0.2340575  0.5000060  0.5259510    0.00000       Uiso       1.00
       O28          O  0.1684381  0.5000060  0.4723515    0.00000       Uiso       1.00
       H37          H  0.3848251  0.5000060  0.4452561    0.00000       Uiso       1.00
       H38          H  0.3846933  0.5000060  0.5538945    0.00000       Uiso       1.00
       H39          H  0.1151772  0.5000060  0.4446976    0.00000       Uiso       1.00
       H40          H  0.1154547  0.5000060  0.5533349    0.00000       Uiso       1.00
       H41          H  0.2770606  0.5000060  0.5467528    0.00000       Uiso       1.00
       H42          H  0.2225894  0.5000060  0.5464991    0.00000       Uiso       1.00
       N42          H  0.2765434  0.5000060  0.4530063    0.00000       Uiso       1.00
       N43          H  0.2240041  0.5000060  0.4527419    0.00000       Uiso       1.00
      C156          C  0.4407949  0.5000060  0.0236778    0.00000       Uiso       1.00
      C157          C  0.4104777  0.5000060  0.0155816    0.00000       Uiso       1.00
      C158          C  0.3590907  0.5000060  0.0164150    0.00000       Uiso       1.00
      C159          C  0.3850097  0.5000060  0.0320085    0.00000       Uiso       1.00
       H43          H  0.3851368  0.5000060  0.0553956    0.00000       Uiso       1.00
       N44          N  0.4584927  0.5000060  0.0002887    0.00000       Uiso       1.00
       N45          N  0.0501230  0.5000060  0.0515051    0.00000       Uiso       1.00
      C160          C  0.0592050  0.5000060  0.0240121    0.00000       Uiso       1.00
       N46          N  0.0416255  0.5000060  0.0005343    0.00000       Uiso       1.00
      C161          C  0.4101742  0.5000060  0.9859945    0.00000       Uiso       1.00
       O29          O  0.3311405  0.5000060  0.9750801    0.00000       Uiso       1.00
       B15          B  0.3143263  0.5000060  0.0019060    0.00000       Uiso       1.00
       O30          O  0.3317190  0.5000060  0.0283226    0.00000       Uiso       1.00
      C162          C  0.0895974  0.5000060  0.0160468    0.00000       Uiso       1.00
      C163          C  0.0899948  0.5000060  0.9864579    0.00000       Uiso       1.00
      C164          C  0.0598848  0.5000060  0.9775894    0.00000       Uiso       1.00
      C165          C  0.1158414  0.5000060  0.9706672    0.00000       Uiso       1.00
      C167          C  0.1410225  0.5000060  0.0169415    0.00000       Uiso       1.00
      C168          C  0.1150571  0.5000060  0.0325194    0.00000       Uiso       1.00
      C166          C  0.1413681  0.5000060  0.9868758    0.00000       Uiso       1.00
       O31          O  0.1684165  0.5000060  0.0288258    0.00000       Uiso       1.00
       B16          B  0.1857878  0.5000060  0.0023642    0.00000       Uiso       1.00
      C169          C  0.2196180  0.5000060  0.0023603    0.00000       Uiso       1.00
      C170          C  0.2348811  0.5000060  0.9760335    0.00000       Uiso       1.00
      C171          C  0.2650427  0.5000060  0.9759042    0.00000       Uiso       1.00
      C172          C  0.2804994  0.5000060  0.0021002    0.00000       Uiso       1.00
      C173          C  0.2652533  0.5000060  0.0284142    0.00000       Uiso       1.00
       O32          O  0.1689689  0.5000060  0.9755802    0.00000       Uiso       1.00
       H44          H  0.3839699  0.5000060  0.9467781    0.00000       Uiso       1.00
       H45          H  0.1162817  0.5000060  0.9472880    0.00000       Uiso       1.00
       H46          H  0.1148975  0.5000060  0.0559084    0.00000       Uiso       1.00
       H47          H  0.2762336  0.5000060  0.9552042    0.00000       Uiso       1.00
       H48          H  0.2235248  0.5000060  0.9554250    0.00000       Uiso       1.00
       N47          H  0.2766189  0.5000060  0.0489761    0.00000       Uiso       1.00
       N48          H  0.2238336  0.5000060  0.0491996    0.00000       Uiso       1.00
      C174          C  0.2808304  0.5000060  0.4997595    0.00000       Uiso       1.00
      C175          C  0.2652866  0.5000060  0.4736347    0.00000       Uiso       1.00
      C176          C  0.2350527  0.5000060  0.0285459    0.00000       Uiso       1.00
       Ni3         Zn  0.9998690  0.5000060  0.4998877    0.00000       Uiso       1.00
       Ni4         Zn  0.5002145  0.5000060  0.4998700    0.00000       Uiso       1.00
