data_ZnPc-DPB
_audit_creation_date              0000-00-00
_audit_creation_method            'LanYouShi'
_symmetry_space_group_name_H-M    'P1'
_cell_length_a                    32.1829987
_cell_length_b                    32.1829987
_cell_length_c                    3.3559999
_cell_angle_alpha                 90.0000000
_cell_angle_beta                  90.0000000
_cell_angle_gamma                 90.0000000
loop_
_atom_site_label
_atom_site_type_symbol
_atom_site_fract_x
_atom_site_fract_y
_atom_site_fract_z
_atom_site_U_iso_or_equiv
_atom_site_adp_type
_atom_site_occupancy
       Zn1         Zn  0.5000000  0.5000000  0.5000000    0.00000       Uiso       1.00
        C1          C  0.0204910  0.5000000  0.5000000    0.00000       Uiso       1.00
        C2          C  0.0576980  0.5000000  0.5000000    0.00000       Uiso       1.00
        C3          C  0.1020750  0.5000000  0.5000000    0.00000       Uiso       1.00
        C4          C  0.1885280  0.5000000  0.5000000    0.00000       Uiso       1.00
        B1          B  0.2366520  0.5000000  0.5000000    0.00000       Uiso       1.00
        N1          N  0.4403210  0.5000000  0.5000000    0.00000       Uiso       1.00
        C5          C  0.9795091  0.5000000  0.5000000    0.00000       Uiso       1.00
        C6          C  0.9423020  0.5000000  0.5000000    0.00000       Uiso       1.00
        C7          C  0.8979250  0.5000000  0.5000000    0.00000       Uiso       1.00
        C8          C  0.8114720  0.5000000  0.5000000    0.00000       Uiso       1.00
        B2          B  0.7633480  0.5000000  0.5000000    0.00000       Uiso       1.00
        N2          N  0.5596790  0.5000000  0.5000000    0.00000       Uiso       1.00
        C9          C  0.5000000  0.0204910  0.5000000    0.00000       Uiso       1.00
       C10          C  0.5000000  0.0576980  0.5000000    0.00000       Uiso       1.00
       C11          C  0.5000000  0.1020750  0.5000000    0.00000       Uiso       1.00
       C12          C  0.5000000  0.1885280  0.5000000    0.00000       Uiso       1.00
        B3          B  0.5000000  0.2366520  0.5000000    0.00000       Uiso       1.00
        N3          N  0.5000000  0.4403210  0.5000000    0.00000       Uiso       1.00
       C13          C  0.5000000  0.9795091  0.5000000    0.00000       Uiso       1.00
       C14          C  0.5000000  0.9423020  0.5000000    0.00000       Uiso       1.00
       C15          C  0.5000000  0.8979250  0.5000000    0.00000       Uiso       1.00
       C16          C  0.5000000  0.8114720  0.5000000    0.00000       Uiso       1.00
        B4          B  0.5000000  0.7633480  0.5000000    0.00000       Uiso       1.00
        N4          N  0.5000000  0.5596790  0.5000000    0.00000       Uiso       1.00
       C17          C  0.1237480  0.4647390  0.5000000    0.00000       Uiso       1.00
       C18          C  0.1668070  0.4647390  0.5000000    0.00000       Uiso       1.00
       C19          C  0.3006420  0.4805510  0.5000000    0.00000       Uiso       1.00
       C20          C  0.3374060  0.4578600  0.5000000    0.00000       Uiso       1.00
       C21          C  0.3738230  0.4805510  0.5000000    0.00000       Uiso       1.00
       C22          C  0.4144780  0.4690420  0.5000000    0.00000       Uiso       1.00
        O1          O  0.2613150  0.4641370  0.5000000    0.00000       Uiso       1.00
        H1          H  0.6636345  0.4224529  0.5000000    0.00000       Uiso       1.00
        H2          H  0.8931124  0.5664135  0.5000000    0.00000       Uiso       1.00
        H3          H  0.8154818  0.5659378  0.5000000    0.00000       Uiso       1.00
       C23          C  0.8762521  0.5352610  0.5000000    0.00000       Uiso       1.00
       C24          C  0.8331930  0.5352610  0.5000000    0.00000       Uiso       1.00
       C25          C  0.6993580  0.5194490  0.5000000    0.00000       Uiso       1.00
       C26          C  0.6625940  0.5421400  0.5000000    0.00000       Uiso       1.00
       C27          C  0.6261770  0.5194490  0.5000000    0.00000       Uiso       1.00
       C28          C  0.5855221  0.5309581  0.5000000    0.00000       Uiso       1.00
        O2          O  0.7386851  0.5358630  0.5000000    0.00000       Uiso       1.00
        H4          H  0.3363656  0.5775472  0.5000000    0.00000       Uiso       1.00
        H5          H  0.1068876  0.4335866  0.5000000    0.00000       Uiso       1.00
        H6          H  0.1845182  0.4340623  0.5000000    0.00000       Uiso       1.00
       C29          C  0.5352610  0.1237480  0.5000000    0.00000       Uiso       1.00
       C30          C  0.5352610  0.1668070  0.5000000    0.00000       Uiso       1.00
       C31          C  0.5194490  0.3006420  0.5000000    0.00000       Uiso       1.00
       C32          C  0.5421400  0.3374060  0.5000000    0.00000       Uiso       1.00
       C33          C  0.5194490  0.3738230  0.5000000    0.00000       Uiso       1.00
       C34          C  0.5309581  0.4144780  0.5000000    0.00000       Uiso       1.00
        O3          O  0.5358630  0.2613150  0.5000000    0.00000       Uiso       1.00
        H7          H  0.5775472  0.6636345  0.5000000    0.00000       Uiso       1.00
        H8          H  0.4335866  0.8931124  0.5000000    0.00000       Uiso       1.00
        H9          H  0.4340623  0.8154818  0.5000000    0.00000       Uiso       1.00
       C35          C  0.4647390  0.8762521  0.5000000    0.00000       Uiso       1.00
       C36          C  0.4647390  0.8331930  0.5000000    0.00000       Uiso       1.00
       C37          C  0.4805510  0.6993580  0.5000000    0.00000       Uiso       1.00
       C38          C  0.4578600  0.6625940  0.5000000    0.00000       Uiso       1.00
       C39          C  0.4805510  0.6261770  0.5000000    0.00000       Uiso       1.00
       C40          C  0.4690420  0.5855221  0.5000000    0.00000       Uiso       1.00
        O4          O  0.4641370  0.7386851  0.5000000    0.00000       Uiso       1.00
       H10          H  0.4224529  0.3363656  0.5000000    0.00000       Uiso       1.00
       H11          H  0.5664135  0.1068876  0.5000000    0.00000       Uiso       1.00
       H12          H  0.5659378  0.1845182  0.5000000    0.00000       Uiso       1.00
       C41          C  0.8762521  0.4647390  0.5000000    0.00000       Uiso       1.00
       C42          C  0.8331930  0.4647390  0.5000000    0.00000       Uiso       1.00
       C43          C  0.6993580  0.4805510  0.5000000    0.00000       Uiso       1.00
       C44          C  0.6625940  0.4578600  0.5000000    0.00000       Uiso       1.00
       C45          C  0.6261770  0.4805510  0.5000000    0.00000       Uiso       1.00
       C46          C  0.5855221  0.4690420  0.5000000    0.00000       Uiso       1.00
        O5          O  0.7386851  0.4641370  0.5000000    0.00000       Uiso       1.00
       H13          H  0.3363656  0.4224529  0.5000000    0.00000       Uiso       1.00
       H14          H  0.1068876  0.5664135  0.5000000    0.00000       Uiso       1.00
       H15          H  0.1845182  0.5659378  0.5000000    0.00000       Uiso       1.00
       C47          C  0.1237480  0.5352610  0.5000000    0.00000       Uiso       1.00
       C48          C  0.1668070  0.5352610  0.5000000    0.00000       Uiso       1.00
       C49          C  0.3006420  0.5194490  0.5000000    0.00000       Uiso       1.00
       C50          C  0.3374060  0.5421400  0.5000000    0.00000       Uiso       1.00
       C51          C  0.3738230  0.5194490  0.5000000    0.00000       Uiso       1.00
       C52          C  0.4144780  0.5309581  0.5000000    0.00000       Uiso       1.00
        O6          O  0.2613150  0.5358630  0.5000000    0.00000       Uiso       1.00
       H16          H  0.6636345  0.5775472  0.5000000    0.00000       Uiso       1.00
       H17          H  0.8931124  0.4335866  0.5000000    0.00000       Uiso       1.00
       H18          H  0.8154818  0.4340623  0.5000000    0.00000       Uiso       1.00
       C53          C  0.4647390  0.1237480  0.5000000    0.00000       Uiso       1.00
       C54          C  0.4647390  0.1668070  0.5000000    0.00000       Uiso       1.00
       C55          C  0.4805510  0.3006420  0.5000000    0.00000       Uiso       1.00
       C56          C  0.4578600  0.3374060  0.5000000    0.00000       Uiso       1.00
       C57          C  0.4805510  0.3738230  0.5000000    0.00000       Uiso       1.00
       C58          C  0.4690420  0.4144780  0.5000000    0.00000       Uiso       1.00
        O7          O  0.4641370  0.2613150  0.5000000    0.00000       Uiso       1.00
       H19          H  0.4224529  0.6636345  0.5000000    0.00000       Uiso       1.00
       H20          H  0.5664135  0.8931124  0.5000000    0.00000       Uiso       1.00
       H21          H  0.5659378  0.8154818  0.5000000    0.00000       Uiso       1.00
       C59          C  0.5352610  0.8762521  0.5000000    0.00000       Uiso       1.00
       C60          C  0.5352610  0.8331930  0.5000000    0.00000       Uiso       1.00
       C61          C  0.5194490  0.6993580  0.5000000    0.00000       Uiso       1.00
       C62          C  0.5421400  0.6625940  0.5000000    0.00000       Uiso       1.00
       C63          C  0.5194490  0.6261770  0.5000000    0.00000       Uiso       1.00
       C64          C  0.5309581  0.5855221  0.5000000    0.00000       Uiso       1.00
        O8          O  0.5358630  0.7386851  0.5000000    0.00000       Uiso       1.00
       H22          H  0.5775472  0.3363656  0.5000000    0.00000       Uiso       1.00
       H23          H  0.4335866  0.1068876  0.5000000    0.00000       Uiso       1.00
       H24          H  0.4340623  0.1845182  0.5000000    0.00000       Uiso       1.00
        N5          N  0.4280540  0.4280540  0.5000000    0.00000       Uiso       1.00
        N6          N  0.5719460  0.5719460  0.5000000    0.00000       Uiso       1.00
        N7          N  0.5719460  0.4280540  0.5000000    0.00000       Uiso       1.00
        N8          N  0.4280540  0.5719460  0.5000000    0.00000       Uiso       1.00
