data_ZnPc-NDI
_audit_creation_date              0000-00-00
_audit_creation_method            'LanYouShi'
_symmetry_space_group_name_H-M    'P1'
_cell_length_a                    35.7010002
_cell_length_b                    35.7010002
_cell_length_c                    3.3610001
_cell_angle_alpha                 90.0000000
_cell_angle_beta                  90.0000000
_cell_angle_gamma                 90.0000000
loop_
_atom_site_label
_atom_site_type_symbol
_atom_site_fract_x
_atom_site_fract_y
_atom_site_fract_z
_atom_site_U_iso_or_equiv
_atom_site_adp_type
_atom_site_occupancy
       Zn1         Zn  0.5000000  0.5000000  0.5000000    0.00000       Uiso       1.00
        C1          C  0.0198790  0.5000000  0.5000000    0.00000       Uiso       1.00
        C2          C  0.1408860  0.5000000  0.5000000    0.00000       Uiso       1.00
        C3          C  0.2216620  0.5000000  0.5000000    0.00000       Uiso       1.00
        B1          B  0.2639210  0.5000000  0.5000000    0.00000       Uiso       1.00
        N1          N  0.0992810  0.5000000  0.5000000    0.00000       Uiso       1.00
        N2          N  0.4471620  0.5000000  0.5000000    0.00000       Uiso       1.00
        C4          C  0.9801210  0.5000000  0.5000000    0.00000       Uiso       1.00
        C5          C  0.8591140  0.5000000  0.5000000    0.00000       Uiso       1.00
        C6          C  0.7783380  0.5000000  0.5000000    0.00000       Uiso       1.00
        B2          B  0.7360790  0.5000000  0.5000000    0.00000       Uiso       1.00
        N3          N  0.9007190  0.5000000  0.5000000    0.00000       Uiso       1.00
        N4          N  0.5528380  0.5000000  0.5000000    0.00000       Uiso       1.00
        C7          C  0.5000000  0.0198790  0.5000000    0.00000       Uiso       1.00
        C8          C  0.5000000  0.1408860  0.5000000    0.00000       Uiso       1.00
        C9          C  0.5000000  0.2216620  0.5000000    0.00000       Uiso       1.00
        B3          B  0.5000000  0.2639210  0.5000000    0.00000       Uiso       1.00
        N5          N  0.5000000  0.0992810  0.5000000    0.00000       Uiso       1.00
        N6          N  0.5000000  0.4471620  0.5000000    0.00000       Uiso       1.00
       C10          C  0.5000000  0.9801210  0.5000000    0.00000       Uiso       1.00
       C11          C  0.5000000  0.8591140  0.5000000    0.00000       Uiso       1.00
       C12          C  0.5000000  0.7783380  0.5000000    0.00000       Uiso       1.00
        B4          B  0.5000000  0.7360790  0.5000000    0.00000       Uiso       1.00
        N7          N  0.5000000  0.9007190  0.5000000    0.00000       Uiso       1.00
        N8          N  0.5000000  0.5528380  0.5000000    0.00000       Uiso       1.00
       C13          C  0.0198790  0.4330990  0.5000000    0.00000       Uiso       1.00
       C14          C  0.0396990  0.4665520  0.5000000    0.00000       Uiso       1.00
       C15          C  0.0791870  0.4665520  0.5000000    0.00000       Uiso       1.00
       C16          C  0.1620590  0.4665520  0.5000000    0.00000       Uiso       1.00
       C17          C  0.2013350  0.4665520  0.5000000    0.00000       Uiso       1.00
       C18          C  0.3194190  0.4808600  0.5000000    0.00000       Uiso       1.00
       C19          C  0.3529420  0.4602360  0.5000000    0.00000       Uiso       1.00
       C20          C  0.3863230  0.4809740  0.5000000    0.00000       Uiso       1.00
       C21          C  0.4234940  0.4702640  0.5000000    0.00000       Uiso       1.00
        O1          O  0.0958270  0.4357140  0.5000000    0.00000       Uiso       1.00
        O2          O  0.2852920  0.4675040  0.5000000    0.00000       Uiso       1.00
        H1          H  0.0351027  0.4067308  0.5000000    0.00000       Uiso       1.00
        H2          H  0.1479219  0.4395857  0.5000000    0.00000       Uiso       1.00
        H3          H  0.2165587  0.4401838  0.5000000    0.00000       Uiso       1.00
        H4          H  0.3520915  0.4298006  0.5000000    0.00000       Uiso       1.00
       C22          C  0.9801210  0.5669010  0.5000000    0.00000       Uiso       1.00
       C23          C  0.9603010  0.5334480  0.5000000    0.00000       Uiso       1.00
       C24          C  0.9208130  0.5334480  0.5000000    0.00000       Uiso       1.00
       C25          C  0.8379411  0.5334480  0.5000000    0.00000       Uiso       1.00
       C26          C  0.7986650  0.5334480  0.5000000    0.00000       Uiso       1.00
       C27          C  0.6805810  0.5191400  0.5000000    0.00000       Uiso       1.00
       C28          C  0.6470580  0.5397640  0.5000000    0.00000       Uiso       1.00
       C29          C  0.6136770  0.5190260  0.5000000    0.00000       Uiso       1.00
       C30          C  0.5765060  0.5297360  0.5000000    0.00000       Uiso       1.00
        O3          O  0.9041730  0.5642860  0.5000000    0.00000       Uiso       1.00
        O4          O  0.7147080  0.5324960  0.5000000    0.00000       Uiso       1.00
        H5          H  0.9648973  0.5932691  0.5000000    0.00000       Uiso       1.00
        H6          H  0.8520780  0.5604144  0.5000000    0.00000       Uiso       1.00
        H7          H  0.7834413  0.5598161  0.5000000    0.00000       Uiso       1.00
        H8          H  0.6479085  0.5701994  0.5000000    0.00000       Uiso       1.00
       C31          C  0.5669010  0.0198790  0.5000000    0.00000       Uiso       1.00
       C32          C  0.5334480  0.0396990  0.5000000    0.00000       Uiso       1.00
       C33          C  0.5334480  0.0791870  0.5000000    0.00000       Uiso       1.00
       C34          C  0.5334480  0.1620590  0.5000000    0.00000       Uiso       1.00
       C35          C  0.5334480  0.2013350  0.5000000    0.00000       Uiso       1.00
       C36          C  0.5191400  0.3194190  0.5000000    0.00000       Uiso       1.00
       C37          C  0.5397640  0.3529420  0.5000000    0.00000       Uiso       1.00
       C38          C  0.5190260  0.3863230  0.5000000    0.00000       Uiso       1.00
       C39          C  0.5297360  0.4234940  0.5000000    0.00000       Uiso       1.00
        O5          O  0.5642860  0.0958270  0.5000000    0.00000       Uiso       1.00
        O6          O  0.5324960  0.2852920  0.5000000    0.00000       Uiso       1.00
        H9          H  0.5932691  0.0351027  0.5000000    0.00000       Uiso       1.00
       H10          H  0.5604144  0.1479219  0.5000000    0.00000       Uiso       1.00
       H11          H  0.5598161  0.2165587  0.5000000    0.00000       Uiso       1.00
       H12          H  0.5701994  0.3520915  0.5000000    0.00000       Uiso       1.00
       C40          C  0.4330990  0.9801210  0.5000000    0.00000       Uiso       1.00
       C41          C  0.4665520  0.9603010  0.5000000    0.00000       Uiso       1.00
       C42          C  0.4665520  0.9208130  0.5000000    0.00000       Uiso       1.00
       C43          C  0.4665520  0.8379411  0.5000000    0.00000       Uiso       1.00
       C44          C  0.4665520  0.7986650  0.5000000    0.00000       Uiso       1.00
       C45          C  0.4808600  0.6805810  0.5000000    0.00000       Uiso       1.00
       C46          C  0.4602360  0.6470580  0.5000000    0.00000       Uiso       1.00
       C47          C  0.4809740  0.6136770  0.5000000    0.00000       Uiso       1.00
       C48          C  0.4702640  0.5765060  0.5000000    0.00000       Uiso       1.00
        O7          O  0.4357140  0.9041730  0.5000000    0.00000       Uiso       1.00
        O8          O  0.4675040  0.7147080  0.5000000    0.00000       Uiso       1.00
       H13          H  0.4067308  0.9648973  0.5000000    0.00000       Uiso       1.00
       H14          H  0.4395857  0.8520780  0.5000000    0.00000       Uiso       1.00
       H15          H  0.4401838  0.7834413  0.5000000    0.00000       Uiso       1.00
       H16          H  0.4298006  0.6479085  0.5000000    0.00000       Uiso       1.00
       C49          C  0.9801210  0.4330990  0.5000000    0.00000       Uiso       1.00
       C50          C  0.9603010  0.4665520  0.5000000    0.00000       Uiso       1.00
       C51          C  0.9208130  0.4665520  0.5000000    0.00000       Uiso       1.00
       C52          C  0.8379411  0.4665520  0.5000000    0.00000       Uiso       1.00
       C53          C  0.7986650  0.4665520  0.5000000    0.00000       Uiso       1.00
       C54          C  0.6805810  0.4808600  0.5000000    0.00000       Uiso       1.00
       C55          C  0.6470580  0.4602360  0.5000000    0.00000       Uiso       1.00
       C56          C  0.6136770  0.4809740  0.5000000    0.00000       Uiso       1.00
       C57          C  0.5765060  0.4702640  0.5000000    0.00000       Uiso       1.00
        O9          O  0.9041730  0.4357140  0.5000000    0.00000       Uiso       1.00
       O10          O  0.7147080  0.4675040  0.5000000    0.00000       Uiso       1.00
       H17          H  0.9648973  0.4067308  0.5000000    0.00000       Uiso       1.00
       H18          H  0.8520780  0.4395857  0.5000000    0.00000       Uiso       1.00
       H19          H  0.7834413  0.4401838  0.5000000    0.00000       Uiso       1.00
       H20          H  0.6479085  0.4298006  0.5000000    0.00000       Uiso       1.00
       C58          C  0.0198790  0.5669010  0.5000000    0.00000       Uiso       1.00
       C59          C  0.0396990  0.5334480  0.5000000    0.00000       Uiso       1.00
       C60          C  0.0791870  0.5334480  0.5000000    0.00000       Uiso       1.00
       C61          C  0.1620590  0.5334480  0.5000000    0.00000       Uiso       1.00
       C62          C  0.2013350  0.5334480  0.5000000    0.00000       Uiso       1.00
       C63          C  0.3194190  0.5191400  0.5000000    0.00000       Uiso       1.00
       C64          C  0.3529420  0.5397640  0.5000000    0.00000       Uiso       1.00
       C65          C  0.3863230  0.5190260  0.5000000    0.00000       Uiso       1.00
       C66          C  0.4234940  0.5297360  0.5000000    0.00000       Uiso       1.00
       O11          O  0.0958270  0.5642860  0.5000000    0.00000       Uiso       1.00
       O12          O  0.2852920  0.5324960  0.5000000    0.00000       Uiso       1.00
       H21          H  0.0351027  0.5932691  0.5000000    0.00000       Uiso       1.00
       H22          H  0.1479219  0.5604144  0.5000000    0.00000       Uiso       1.00
       H23          H  0.2165587  0.5598161  0.5000000    0.00000       Uiso       1.00
       H24          H  0.3520915  0.5701994  0.5000000    0.00000       Uiso       1.00
       C67          C  0.4330990  0.0198790  0.5000000    0.00000       Uiso       1.00
       C68          C  0.4665520  0.0396990  0.5000000    0.00000       Uiso       1.00
       C69          C  0.4665520  0.0791870  0.5000000    0.00000       Uiso       1.00
       C70          C  0.4665520  0.1620590  0.5000000    0.00000       Uiso       1.00
       C71          C  0.4665520  0.2013350  0.5000000    0.00000       Uiso       1.00
       C72          C  0.4808600  0.3194190  0.5000000    0.00000       Uiso       1.00
       C73          C  0.4602360  0.3529420  0.5000000    0.00000       Uiso       1.00
       C74          C  0.4809740  0.3863230  0.5000000    0.00000       Uiso       1.00
       C75          C  0.4702640  0.4234940  0.5000000    0.00000       Uiso       1.00
       O13          O  0.4357140  0.0958270  0.5000000    0.00000       Uiso       1.00
       O14          O  0.4675040  0.2852920  0.5000000    0.00000       Uiso       1.00
       H25          H  0.4067308  0.0351027  0.5000000    0.00000       Uiso       1.00
       H26          H  0.4395857  0.1479219  0.5000000    0.00000       Uiso       1.00
       H27          H  0.4401838  0.2165587  0.5000000    0.00000       Uiso       1.00
       H28          H  0.4298006  0.3520915  0.5000000    0.00000       Uiso       1.00
       C76          C  0.5669010  0.9801210  0.5000000    0.00000       Uiso       1.00
       C77          C  0.5334480  0.9603010  0.5000000    0.00000       Uiso       1.00
       C78          C  0.5334480  0.9208130  0.5000000    0.00000       Uiso       1.00
       C79          C  0.5334480  0.8379411  0.5000000    0.00000       Uiso       1.00
       C80          C  0.5334480  0.7986650  0.5000000    0.00000       Uiso       1.00
       C81          C  0.5191400  0.6805810  0.5000000    0.00000       Uiso       1.00
       C82          C  0.5397640  0.6470580  0.5000000    0.00000       Uiso       1.00
       C83          C  0.5190260  0.6136770  0.5000000    0.00000       Uiso       1.00
       C84          C  0.5297360  0.5765060  0.5000000    0.00000       Uiso       1.00
       O15          O  0.5642860  0.9041730  0.5000000    0.00000       Uiso       1.00
       O16          O  0.5324960  0.7147080  0.5000000    0.00000       Uiso       1.00
       H29          H  0.5932691  0.9648973  0.5000000    0.00000       Uiso       1.00
       H30          H  0.5604144  0.8520780  0.5000000    0.00000       Uiso       1.00
       H31          H  0.5598161  0.7834413  0.5000000    0.00000       Uiso       1.00
       H32          H  0.5701994  0.6479085  0.5000000    0.00000       Uiso       1.00
        N9          N  0.4345200  0.4345200  0.5000000    0.00000       Uiso       1.00
       N10          N  0.5654800  0.5654800  0.5000000    0.00000       Uiso       1.00
       N11          N  0.5654800  0.4345200  0.5000000    0.00000       Uiso       1.00
       N12          N  0.4345200  0.5654800  0.5000000    0.00000       Uiso       1.00
