data_crystal
 
_cell_length_a    3.51000
_cell_length_b    46.03000
_cell_length_c    43.18000
_cell_angle_alpha 90.00000
_cell_angle_beta  90.00000
_cell_angle_gamma 90.00000
 
_symmetry_space_group_name_Hall 'P 1'
_symmetry_space_group_name_H-M  'P 1'
 
loop_
_symmetry_equiv_pos_as_xyz
 'x,y,z' 
 
loop_
_atom_site_label
_atom_site_type_symbol
_atom_site_fract_x
_atom_site_fract_y
_atom_site_fract_z
_atom_site_charge
N          N       0.50000   0.28259   0.29816   0.0000000000
N          N       0.50000   0.28714   0.24553   0.0000000000
N          N       0.50000   0.21891   0.73231   0.0000000000
N          N       0.50000   0.21448   0.78495   0.0000000000
N          N       0.50000   0.06130   0.77167   0.0000000000
N          N       0.50000   0.43850   0.30823   0.0000000000
N          N       0.50000   0.25533   0.58080   0.0000000000
N          N       0.50000   0.23482   0.07892   0.0000000000
N          N       0.50000   0.26704   0.95146   0.0000000000
N          N       0.50000   0.24596   0.44956   0.0000000000
C          C       0.50000   0.25451   0.28462   0.0000000000
C          C       0.50000   0.22750   0.29960   0.0000000000
C          C       0.50000   0.20278   0.28009   0.0000000000
C          C       0.50000   0.25724   0.25324   0.0000000000
C          C       0.50000   0.23335   0.23310   0.0000000000
C          C       0.50000   0.20566   0.24732   0.0000000000
C          C       0.50000   0.30058   0.27339   0.0000000000
C          C       0.50000   0.24702   0.74578   0.0000000000
C          C       0.50000   0.27400   0.73075   0.0000000000
C          C       0.50000   0.24436   0.77717   0.0000000000
C          C       0.50000   0.29595   0.78298   0.0000000000
C          C       0.50000   0.03037   0.77082   0.0000000000
C          C       0.50000   0.20098   0.75713   0.0000000000
C          C       0.50000   0.26829   0.79726   0.0000000000
C          C       0.50000   0.29876   0.75020   0.0000000000
C          C       0.50000   0.22527   0.33415   0.0000000000
C          C       0.50000   0.27617   0.69619   0.0000000000
C          C       0.50000   0.27938   0.59657   0.0000000000
C          C       0.50000   0.26440   0.83169   0.0000000000
C          C       0.50000   0.23730   0.19868   0.0000000000
C          C       0.50000   0.16935   0.75432   0.0000000000
C          C       0.50000   0.33220   0.27631   0.0000000000
C          C       0.50000   0.34538   0.30555   0.0000000000
C          C       0.50000   0.37562   0.30800   0.0000000000
C          C       0.50000   0.39265   0.28114   0.0000000000
C          C       0.50000   0.37952   0.25204   0.0000000000
C          C       0.50000   0.34939   0.24961   0.0000000000
C          C       0.50000   0.42420   0.28242   0.0000000000
C          C       0.50000   0.25342   0.54767   0.0000000000
C          C       0.50000   0.22590   0.53382   0.0000000000
C          C       0.50000   0.22305   0.50156   0.0000000000
C          C       0.50000   0.24786   0.48269   0.0000000000
C          C       0.50000   0.27538   0.49654   0.0000000000
C          C       0.50000   0.27823   0.52880   0.0000000000
C          C       0.50000   0.24316   0.04683   0.0000000000
C          C       0.50000   0.22166   0.02398   0.0000000000
C          C       0.50000   0.22931   0.99262   0.0000000000
C          C       0.50000   0.25870   0.98355   0.0000000000
C          C       0.50000   0.28021   0.00640   0.0000000000
C          C       0.50000   0.27255   0.03777   0.0000000000
C          C       0.50000   0.24695   0.13398   0.0000000000
C          C       0.50000   0.15227   0.78109   0.0000000000
C          C       0.50000   0.12214   0.77876   0.0000000000
C          C       0.50000   0.10883   0.74962   0.0000000000
C          C       0.50000   0.12581   0.72281   0.0000000000
C          C       0.50000   0.15606   0.72514   0.0000000000
C          C       0.50000   0.07728   0.74702   0.0000000000
C          C       0.50000   0.21368   0.17796   0.0000000000
C          C       0.50000   0.21845   0.14571   0.0000000000
C          C       0.50000   0.27025   0.15445   0.0000000000
C          C       0.50000   0.26544   0.18620   0.0000000000
C          C       0.50000   0.28806   0.85237   0.0000000000
C          C       0.50000   0.28334   0.88463   0.0000000000
C          C       0.50000   0.25485   0.89641   0.0000000000
C          C       0.50000   0.23153   0.87598   0.0000000000
C          C       0.50000   0.23628   0.84422   0.0000000000
C          C       0.50000   0.24779   0.92957   0.0000000000
C          C       0.50000   0.25406   0.10083   0.0000000000
C          C       0.50000   0.19834   0.34954   0.0000000000
C          C       0.50000   0.19711   0.38211   0.0000000000
C          C       0.50000   0.22277   0.39966   0.0000000000
C          C       0.50000   0.24950   0.38438   0.0000000000
C          C       0.50000   0.25062   0.35222   0.0000000000
C          C       0.50000   0.22192   0.43377   0.0000000000
C          C       0.50000   0.30308   0.68076   0.0000000000
C          C       0.50000   0.30426   0.64819   0.0000000000
C          C       0.50000   0.27857   0.63068   0.0000000000
C          C       0.50000   0.25186   0.64600   0.0000000000
C          C       0.50000   0.25079   0.67817   0.0000000000
C          C       0.50000   0.46955   0.30815   0.0000000000
C          C       0.50000   0.48479   0.33619   0.0000000000
C          C       0.50000   0.48495   0.28013   0.0000000000
C          C       0.50000   0.01513   0.74268   0.0000000000
C          C       0.50000   0.01514   0.79877   0.0000000000
H          H       0.50000   0.28496   0.32374   0.0000000000
H          H       0.50000   0.20773   0.80963   0.0000000000
H          H       0.50000   0.18007   0.29062   0.0000000000
H          H       0.50000   0.18546   0.23204   0.0000000000
H          H       0.50000   0.31644   0.79780   0.0000000000
H          H       0.50000   0.32145   0.73962   0.0000000000
H          H       0.50000   0.30117   0.58402   0.0000000000
H          H       0.50000   0.33141   0.32735   0.0000000000
H          H       0.50000   0.38634   0.33179   0.0000000000
H          H       0.50000   0.39347   0.23024   0.0000000000
H          H       0.50000   0.33871   0.22579   0.0000000000
H          H       0.50000   0.43637   0.25942   0.0000000000
H          H       0.50000   0.20554   0.54887   0.0000000000
H          H       0.50000   0.20054   0.49055   0.0000000000
H          H       0.50000   0.29574   0.48150   0.0000000000
H          H       0.50000   0.30077   0.53975   0.0000000000
H          H       0.50000   0.19774   0.03086   0.0000000000
H          H       0.50000   0.21145   0.97433   0.0000000000
H          H       0.50000   0.30408   0.99938   0.0000000000
H          H       0.50000   0.29041   0.05606   0.0000000000
H          H       0.50000   0.16304   0.80486   0.0000000000
H          H       0.50000   0.10824   0.80062   0.0000000000
H          H       0.50000   0.11495   0.69908   0.0000000000
H          H       0.50000   0.16994   0.70328   0.0000000000
H          H       0.50000   0.06666   0.72317   0.0000000000
H          H       0.50000   0.19049   0.18722   0.0000000000
H          H       0.50000   0.19917   0.12914   0.0000000000
H          H       0.50000   0.29345   0.14521   0.0000000000
H          H       0.50000   0.28512   0.20223   0.0000000000
H          H       0.50000   0.31124   0.84306   0.0000000000
H          H       0.50000   0.30262   0.90120   0.0000000000
H          H       0.50000   0.20834   0.88526   0.0000000000
H          H       0.50000   0.21658   0.82823   0.0000000000
H          H       0.50000   0.22367   0.93557   0.0000000000
H          H       0.50000   0.27818   0.09485   0.0000000000
H          H       0.50000   0.17729   0.33562   0.0000000000
H          H       0.50000   0.17518   0.39438   0.0000000000
H          H       0.50000   0.27054   0.39830   0.0000000000
H          H       0.50000   0.27284   0.34056   0.0000000000
H          H       0.50000   0.20012   0.44630   0.0000000000
H          H       0.50000   0.32414   0.69464   0.0000000000
H          H       0.50000   0.32617   0.63588   0.0000000000
H          H       0.50000   0.23080   0.63212   0.0000000000
H          H       0.50000   0.22859   0.68987   0.0000000000
H          H       0.50000   0.47244   0.35907   0.0000000000
H          H       0.50000   0.47271   0.25719   0.0000000000
H          H       0.50000   0.02751   0.71982   0.0000000000
H          H       0.50000   0.02747   0.82167   0.0000000000
N          N       0.50000   0.71741   0.29816   0.0000000000
N          N       0.50000   0.71286   0.24553   0.0000000000
N          N       0.50000   0.78109   0.73231   0.0000000000
N          N       0.50000   0.78552   0.78495   0.0000000000
N          N       0.50000   0.93870   0.77167   0.0000000000
N          N       0.50000   0.56150   0.30823   0.0000000000
N          N       0.50000   0.74467   0.58080   0.0000000000
N          N       0.50000   0.76518   0.07892   0.0000000000
N          N       0.50000   0.73296   0.95146   0.0000000000
N          N       0.50000   0.75404   0.44956   0.0000000000
C          C       0.50000   0.74549   0.28462   0.0000000000
C          C       0.50000   0.77250   0.29960   0.0000000000
C          C       0.50000   0.79722   0.28009   0.0000000000
C          C       0.50000   0.74276   0.25324   0.0000000000
C          C       0.50000   0.76665   0.23310   0.0000000000
C          C       0.50000   0.79434   0.24732   0.0000000000
C          C       0.50000   0.69942   0.27339   0.0000000000
C          C       0.50000   0.75298   0.74578   0.0000000000
C          C       0.50000   0.72600   0.73075   0.0000000000
C          C       0.50000   0.75564   0.77717   0.0000000000
C          C       0.50000   0.70405   0.78298   0.0000000000
C          C       0.50000   0.96963   0.77082   0.0000000000
C          C       0.50000   0.79902   0.75713   0.0000000000
C          C       0.50000   0.73171   0.79726   0.0000000000
C          C       0.50000   0.70124   0.75020   0.0000000000
C          C       0.50000   0.77473   0.33415   0.0000000000
C          C       0.50000   0.72383   0.69619   0.0000000000
C          C       0.50000   0.72062   0.59657   0.0000000000
C          C       0.50000   0.73560   0.83169   0.0000000000
C          C       0.50000   0.76270   0.19868   0.0000000000
C          C       0.50000   0.83065   0.75432   0.0000000000
C          C       0.50000   0.66780   0.27631   0.0000000000
C          C       0.50000   0.65462   0.30555   0.0000000000
C          C       0.50000   0.62438   0.30800   0.0000000000
C          C       0.50000   0.60735   0.28114   0.0000000000
C          C       0.50000   0.62048   0.25204   0.0000000000
C          C       0.50000   0.65061   0.24961   0.0000000000
C          C       0.50000   0.57580   0.28242   0.0000000000
C          C       0.50000   0.74658   0.54767   0.0000000000
C          C       0.50000   0.77410   0.53382   0.0000000000
C          C       0.50000   0.77695   0.50156   0.0000000000
C          C       0.50000   0.75214   0.48269   0.0000000000
C          C       0.50000   0.72462   0.49654   0.0000000000
C          C       0.50000   0.72177   0.52880   0.0000000000
C          C       0.50000   0.75684   0.04683   0.0000000000
C          C       0.50000   0.77834   0.02398   0.0000000000
C          C       0.50000   0.77069   0.99262   0.0000000000
C          C       0.50000   0.74130   0.98355   0.0000000000
C          C       0.50000   0.71979   0.00640   0.0000000000
C          C       0.50000   0.72745   0.03777   0.0000000000
C          C       0.50000   0.75305   0.13398   0.0000000000
C          C       0.50000   0.84773   0.78109   0.0000000000
C          C       0.50000   0.87786   0.77876   0.0000000000
C          C       0.50000   0.89117   0.74962   0.0000000000
C          C       0.50000   0.87419   0.72281   0.0000000000
C          C       0.50000   0.84394   0.72514   0.0000000000
C          C       0.50000   0.92272   0.74702   0.0000000000
C          C       0.50000   0.78632   0.17796   0.0000000000
C          C       0.50000   0.78155   0.14571   0.0000000000
C          C       0.50000   0.72975   0.15445   0.0000000000
C          C       0.50000   0.73456   0.18620   0.0000000000
C          C       0.50000   0.71194   0.85237   0.0000000000
C          C       0.50000   0.71666   0.88463   0.0000000000
C          C       0.50000   0.74515   0.89641   0.0000000000
C          C       0.50000   0.76847   0.87598   0.0000000000
C          C       0.50000   0.76372   0.84422   0.0000000000
C          C       0.50000   0.75221   0.92957   0.0000000000
C          C       0.50000   0.74594   0.10083   0.0000000000
C          C       0.50000   0.80166   0.34954   0.0000000000
C          C       0.50000   0.80289   0.38211   0.0000000000
C          C       0.50000   0.77723   0.39966   0.0000000000
C          C       0.50000   0.75050   0.38438   0.0000000000
C          C       0.50000   0.74938   0.35222   0.0000000000
C          C       0.50000   0.77808   0.43377   0.0000000000
C          C       0.50000   0.69692   0.68076   0.0000000000
C          C       0.50000   0.69574   0.64819   0.0000000000
C          C       0.50000   0.72143   0.63068   0.0000000000
C          C       0.50000   0.74814   0.64600   0.0000000000
C          C       0.50000   0.74921   0.67817   0.0000000000
C          C       0.50000   0.53045   0.30815   0.0000000000
C          C       0.50000   0.51521   0.33619   0.0000000000
C          C       0.50000   0.51505   0.28013   0.0000000000
C          C       0.50000   0.98487   0.74268   0.0000000000
C          C       0.50000   0.98486   0.79877   0.0000000000
H          H       0.50000   0.71504   0.32374   0.0000000000
H          H       0.50000   0.79227   0.80963   0.0000000000
H          H       0.50000   0.81993   0.29062   0.0000000000
H          H       0.50000   0.81454   0.23204   0.0000000000
H          H       0.50000   0.68356   0.79780   0.0000000000
H          H       0.50000   0.67855   0.73962   0.0000000000
H          H       0.50000   0.69883   0.58402   0.0000000000
H          H       0.50000   0.66859   0.32735   0.0000000000
H          H       0.50000   0.61366   0.33179   0.0000000000
H          H       0.50000   0.60653   0.23024   0.0000000000
H          H       0.50000   0.66129   0.22579   0.0000000000
H          H       0.50000   0.56363   0.25942   0.0000000000
H          H       0.50000   0.79446   0.54887   0.0000000000
H          H       0.50000   0.79946   0.49055   0.0000000000
H          H       0.50000   0.70426   0.48150   0.0000000000
H          H       0.50000   0.69923   0.53975   0.0000000000
H          H       0.50000   0.80226   0.03086   0.0000000000
H          H       0.50000   0.78855   0.97433   0.0000000000
H          H       0.50000   0.69592   0.99938   0.0000000000
H          H       0.50000   0.70959   0.05606   0.0000000000
H          H       0.50000   0.83696   0.80486   0.0000000000
H          H       0.50000   0.89176   0.80062   0.0000000000
H          H       0.50000   0.88505   0.69908   0.0000000000
H          H       0.50000   0.83006   0.70328   0.0000000000
H          H       0.50000   0.93334   0.72317   0.0000000000
H          H       0.50000   0.80951   0.18722   0.0000000000
H          H       0.50000   0.80083   0.12914   0.0000000000
H          H       0.50000   0.70655   0.14521   0.0000000000
H          H       0.50000   0.71488   0.20223   0.0000000000
H          H       0.50000   0.68876   0.84306   0.0000000000
H          H       0.50000   0.69738   0.90120   0.0000000000
H          H       0.50000   0.79166   0.88526   0.0000000000
H          H       0.50000   0.78342   0.82823   0.0000000000
H          H       0.50000   0.77633   0.93557   0.0000000000
H          H       0.50000   0.72182   0.09485   0.0000000000
H          H       0.50000   0.82271   0.33562   0.0000000000
H          H       0.50000   0.82482   0.39438   0.0000000000
H          H       0.50000   0.72946   0.39830   0.0000000000
H          H       0.50000   0.72716   0.34056   0.0000000000
H          H       0.50000   0.79988   0.44630   0.0000000000
H          H       0.50000   0.67586   0.69464   0.0000000000
H          H       0.50000   0.67383   0.63588   0.0000000000
H          H       0.50000   0.76920   0.63212   0.0000000000
H          H       0.50000   0.77141   0.68987   0.0000000000
H          H       0.50000   0.52756   0.35907   0.0000000000
H          H       0.50000   0.52729   0.25719   0.0000000000
H          H       0.50000   0.97249   0.71982   0.0000000000
H          H       0.50000   0.97253   0.82167   0.0000000000
