data_BW-COF-AA
_audit_creation_date              0000-00-00
_audit_creation_method            'LanYouShi'
_symmetry_space_group_name_H-M    'P1'
_cell_length_a                    3.5100000
_cell_length_b                    46.0299988
_cell_length_c                    43.1800003
_cell_angle_alpha                 90.0000000
_cell_angle_beta                  90.0000000
_cell_angle_gamma                 90.0000000
loop_
_atom_site_label
_atom_site_type_symbol
_atom_site_fract_x
_atom_site_fract_y
_atom_site_fract_z
_atom_site_U_iso_or_equiv
_atom_site_adp_type
_atom_site_occupancy
        N1          N  0.5000000  0.2825900  0.2981600    0.00000       Uiso       1.00
        N2          N  0.5000000  0.2871400  0.2455300    0.00000       Uiso       1.00
        N3          N  0.5000000  0.2189100  0.7323100    0.00000       Uiso       1.00
        N4          N  0.5000000  0.2144800  0.7849500    0.00000       Uiso       1.00
        N5          N  0.5000000  0.0613000  0.7716700    0.00000       Uiso       1.00
        N6          N  0.5000000  0.4385000  0.3082300    0.00000       Uiso       1.00
        N7          N  0.5000000  0.2553300  0.5808000    0.00000       Uiso       1.00
        N8          N  0.5000000  0.2348200  0.0789200    0.00000       Uiso       1.00
        N9          N  0.5000000  0.2670400  0.9514599    0.00000       Uiso       1.00
       N10          N  0.5000000  0.2459600  0.4495600    0.00000       Uiso       1.00
        C1          C  0.5000000  0.2545100  0.2846200    0.00000       Uiso       1.00
        C2          C  0.5000000  0.2275000  0.2996000    0.00000       Uiso       1.00
        C3          C  0.5000000  0.2027800  0.2800900    0.00000       Uiso       1.00
        C4          C  0.5000000  0.2572400  0.2532400    0.00000       Uiso       1.00
        C5          C  0.5000000  0.2333500  0.2331000    0.00000       Uiso       1.00
        C6          C  0.5000000  0.2056600  0.2473200    0.00000       Uiso       1.00
        C7          C  0.5000000  0.3005800  0.2733900    0.00000       Uiso       1.00
        C8          C  0.5000000  0.2470200  0.7457801    0.00000       Uiso       1.00
        C9          C  0.5000000  0.2740000  0.7307500    0.00000       Uiso       1.00
       C10          C  0.5000000  0.2443600  0.7771700    0.00000       Uiso       1.00
       C11          C  0.5000000  0.2959500  0.7829800    0.00000       Uiso       1.00
       C12          C  0.5000000  0.0303700  0.7708200    0.00000       Uiso       1.00
       C13          C  0.5000000  0.2009800  0.7571300    0.00000       Uiso       1.00
       C14          C  0.5000000  0.2682900  0.7972600    0.00000       Uiso       1.00
       C15          C  0.5000000  0.2987600  0.7502000    0.00000       Uiso       1.00
       C16          C  0.5000000  0.2252700  0.3341500    0.00000       Uiso       1.00
       C17          C  0.5000000  0.2761700  0.6961900    0.00000       Uiso       1.00
       C18          C  0.5000000  0.2793800  0.5965700    0.00000       Uiso       1.00
       C19          C  0.5000000  0.2644000  0.8316900    0.00000       Uiso       1.00
       C20          C  0.5000000  0.2373000  0.1986800    0.00000       Uiso       1.00
       C21          C  0.5000000  0.1693500  0.7543200    0.00000       Uiso       1.00
       C22          C  0.5000000  0.3322000  0.2763100    0.00000       Uiso       1.00
       C23          C  0.5000000  0.3453800  0.3055500    0.00000       Uiso       1.00
       C24          C  0.5000000  0.3756200  0.3080000    0.00000       Uiso       1.00
       C25          C  0.5000000  0.3926500  0.2811400    0.00000       Uiso       1.00
       C26          C  0.5000000  0.3795200  0.2520400    0.00000       Uiso       1.00
       C27          C  0.5000000  0.3493900  0.2496100    0.00000       Uiso       1.00
       C28          C  0.5000000  0.4242000  0.2824200    0.00000       Uiso       1.00
       C29          C  0.5000000  0.2534200  0.5476700    0.00000       Uiso       1.00
       C30          C  0.5000000  0.2259000  0.5338200    0.00000       Uiso       1.00
       C31          C  0.5000000  0.2230500  0.5015600    0.00000       Uiso       1.00
       C32          C  0.5000000  0.2478600  0.4826900    0.00000       Uiso       1.00
       C33          C  0.5000000  0.2753800  0.4965400    0.00000       Uiso       1.00
       C34          C  0.5000000  0.2782300  0.5288000    0.00000       Uiso       1.00
       C35          C  0.5000000  0.2431600  0.0468300    0.00000       Uiso       1.00
       C36          C  0.5000000  0.2216600  0.0239800    0.00000       Uiso       1.00
       C37          C  0.5000000  0.2293100  0.9926200    0.00000       Uiso       1.00
       C38          C  0.5000000  0.2587000  0.9835500    0.00000       Uiso       1.00
       C39          C  0.5000000  0.2802100  0.0064000    0.00000       Uiso       1.00
       C40          C  0.5000000  0.2725500  0.0377700    0.00000       Uiso       1.00
       C41          C  0.5000000  0.2469500  0.1339800    0.00000       Uiso       1.00
       C42          C  0.5000000  0.1522700  0.7810900    0.00000       Uiso       1.00
       C43          C  0.5000000  0.1221400  0.7787600    0.00000       Uiso       1.00
       C44          C  0.5000000  0.1088300  0.7496200    0.00000       Uiso       1.00
       C45          C  0.5000000  0.1258100  0.7228100    0.00000       Uiso       1.00
       C46          C  0.5000000  0.1560600  0.7251400    0.00000       Uiso       1.00
       C47          C  0.5000000  0.0772800  0.7470200    0.00000       Uiso       1.00
       C48          C  0.5000000  0.2136800  0.1779600    0.00000       Uiso       1.00
       C49          C  0.5000000  0.2184500  0.1457100    0.00000       Uiso       1.00
       C50          C  0.5000000  0.2702500  0.1544500    0.00000       Uiso       1.00
       C51          C  0.5000000  0.2654400  0.1862000    0.00000       Uiso       1.00
       C52          C  0.5000000  0.2880600  0.8523700    0.00000       Uiso       1.00
       C53          C  0.5000000  0.2833400  0.8846300    0.00000       Uiso       1.00
       C54          C  0.5000000  0.2548500  0.8964100    0.00000       Uiso       1.00
       C55          C  0.5000000  0.2315300  0.8759800    0.00000       Uiso       1.00
       C56          C  0.5000000  0.2362800  0.8442200    0.00000       Uiso       1.00
       C57          C  0.5000000  0.2477900  0.9295700    0.00000       Uiso       1.00
       C58          C  0.5000000  0.2540600  0.1008300    0.00000       Uiso       1.00
       C59          C  0.5000000  0.1983400  0.3495400    0.00000       Uiso       1.00
       C60          C  0.5000000  0.1971100  0.3821100    0.00000       Uiso       1.00
       C61          C  0.5000000  0.2227700  0.3996600    0.00000       Uiso       1.00
       C62          C  0.5000000  0.2495000  0.3843800    0.00000       Uiso       1.00
       C63          C  0.5000000  0.2506200  0.3522200    0.00000       Uiso       1.00
       C64          C  0.5000000  0.2219200  0.4337700    0.00000       Uiso       1.00
       C65          C  0.5000000  0.3030800  0.6807600    0.00000       Uiso       1.00
       C66          C  0.5000000  0.3042600  0.6481900    0.00000       Uiso       1.00
       C67          C  0.5000000  0.2785700  0.6306800    0.00000       Uiso       1.00
       C68          C  0.5000000  0.2518600  0.6460000    0.00000       Uiso       1.00
       C69          C  0.5000000  0.2507900  0.6781700    0.00000       Uiso       1.00
       C70          C  0.5000000  0.4695500  0.3081500    0.00000       Uiso       1.00
       C71          C  0.5000000  0.4847900  0.3361900    0.00000       Uiso       1.00
       C72          C  0.5000000  0.4849500  0.2801300    0.00000       Uiso       1.00
       C73          C  0.5000000  0.0151300  0.7426800    0.00000       Uiso       1.00
       C74          C  0.5000000  0.0151400  0.7987700    0.00000       Uiso       1.00
        H1          H  0.5000000  0.2849600  0.3237400    0.00000       Uiso       1.00
        H2          H  0.5000000  0.2077300  0.8096300    0.00000       Uiso       1.00
        H3          H  0.5000000  0.1800700  0.2906200    0.00000       Uiso       1.00
        H4          H  0.5000000  0.1854600  0.2320400    0.00000       Uiso       1.00
        H5          H  0.5000000  0.3164400  0.7978000    0.00000       Uiso       1.00
        H6          H  0.5000000  0.3214500  0.7396200    0.00000       Uiso       1.00
        H7          H  0.5000000  0.3011700  0.5840200    0.00000       Uiso       1.00
        H8          H  0.5000000  0.3314100  0.3273500    0.00000       Uiso       1.00
        H9          H  0.5000000  0.3863400  0.3317900    0.00000       Uiso       1.00
       H10          H  0.5000000  0.3934700  0.2302400    0.00000       Uiso       1.00
       H11          H  0.5000000  0.3387100  0.2257900    0.00000       Uiso       1.00
       H12          H  0.5000000  0.4363700  0.2594200    0.00000       Uiso       1.00
       H13          H  0.5000000  0.2055400  0.5488700    0.00000       Uiso       1.00
       H14          H  0.5000000  0.2005400  0.4905500    0.00000       Uiso       1.00
       H15          H  0.5000000  0.2957400  0.4815000    0.00000       Uiso       1.00
       H16          H  0.5000000  0.3007700  0.5397500    0.00000       Uiso       1.00
       H17          H  0.5000000  0.1977400  0.0308600    0.00000       Uiso       1.00
       H18          H  0.5000000  0.2114500  0.9743299    0.00000       Uiso       1.00
       H19          H  0.5000000  0.3040800  0.9993800    0.00000       Uiso       1.00
       H20          H  0.5000000  0.2904100  0.0560600    0.00000       Uiso       1.00
       H21          H  0.5000000  0.1630400  0.8048601    0.00000       Uiso       1.00
       H22          H  0.5000000  0.1082400  0.8006200    0.00000       Uiso       1.00
       H23          H  0.5000000  0.1149500  0.6990800    0.00000       Uiso       1.00
       H24          H  0.5000000  0.1699400  0.7032800    0.00000       Uiso       1.00
       H25          H  0.5000000  0.0666600  0.7231700    0.00000       Uiso       1.00
       H26          H  0.5000000  0.1904900  0.1872200    0.00000       Uiso       1.00
       H27          H  0.5000000  0.1991700  0.1291400    0.00000       Uiso       1.00
       H28          H  0.5000000  0.2934500  0.1452100    0.00000       Uiso       1.00
       H29          H  0.5000000  0.2851200  0.2022300    0.00000       Uiso       1.00
       H30          H  0.5000000  0.3112400  0.8430600    0.00000       Uiso       1.00
       H31          H  0.5000000  0.3026200  0.9011999    0.00000       Uiso       1.00
       H32          H  0.5000000  0.2083400  0.8852599    0.00000       Uiso       1.00
       H33          H  0.5000000  0.2165800  0.8282300    0.00000       Uiso       1.00
       H34          H  0.5000000  0.2236700  0.9355699    0.00000       Uiso       1.00
       H35          H  0.5000000  0.2781800  0.0948500    0.00000       Uiso       1.00
       H36          H  0.5000000  0.1772900  0.3356200    0.00000       Uiso       1.00
       H37          H  0.5000000  0.1751800  0.3943800    0.00000       Uiso       1.00
       H38          H  0.5000000  0.2705400  0.3983000    0.00000       Uiso       1.00
       H39          H  0.5000000  0.2728400  0.3405600    0.00000       Uiso       1.00
       H40          H  0.5000000  0.2001200  0.4463000    0.00000       Uiso       1.00
       H41          H  0.5000000  0.3241400  0.6946400    0.00000       Uiso       1.00
       H42          H  0.5000000  0.3261700  0.6358800    0.00000       Uiso       1.00
       H43          H  0.5000000  0.2308000  0.6321200    0.00000       Uiso       1.00
       H44          H  0.5000000  0.2285900  0.6898700    0.00000       Uiso       1.00
       H45          H  0.5000000  0.4724400  0.3590700    0.00000       Uiso       1.00
       H46          H  0.5000000  0.4727100  0.2571900    0.00000       Uiso       1.00
       H47          H  0.5000000  0.0275100  0.7198200    0.00000       Uiso       1.00
       H48          H  0.5000000  0.0274700  0.8216700    0.00000       Uiso       1.00
       N11          N  0.5000000  0.7174100  0.2981600    0.00000       Uiso       1.00
       N12          N  0.5000000  0.7128600  0.2455300    0.00000       Uiso       1.00
       N13          N  0.5000000  0.7810900  0.7323100    0.00000       Uiso       1.00
       N14          N  0.5000000  0.7855200  0.7849500    0.00000       Uiso       1.00
       N15          N  0.5000000  0.9387001  0.7716700    0.00000       Uiso       1.00
       N16          N  0.5000000  0.5615000  0.3082300    0.00000       Uiso       1.00
       N17          N  0.5000000  0.7446700  0.5808000    0.00000       Uiso       1.00
       N18          N  0.5000000  0.7651801  0.0789200    0.00000       Uiso       1.00
       N19          N  0.5000000  0.7329600  0.9514599    0.00000       Uiso       1.00
       N20          N  0.5000000  0.7540400  0.4495600    0.00000       Uiso       1.00
       C75          C  0.5000000  0.7454900  0.2846200    0.00000       Uiso       1.00
       C76          C  0.5000000  0.7725000  0.2996000    0.00000       Uiso       1.00
       C77          C  0.5000000  0.7972201  0.2800900    0.00000       Uiso       1.00
       C78          C  0.5000000  0.7427600  0.2532400    0.00000       Uiso       1.00
       C79          C  0.5000000  0.7666500  0.2331000    0.00000       Uiso       1.00
       C80          C  0.5000000  0.7943400  0.2473200    0.00000       Uiso       1.00
       C81          C  0.5000000  0.6994200  0.2733900    0.00000       Uiso       1.00
       C82          C  0.5000000  0.7529800  0.7457801    0.00000       Uiso       1.00
       C83          C  0.5000000  0.7260001  0.7307500    0.00000       Uiso       1.00
       C84          C  0.5000000  0.7556400  0.7771700    0.00000       Uiso       1.00
       C85          C  0.5000000  0.7040500  0.7829800    0.00000       Uiso       1.00
       C86          C  0.5000000  0.9696300  0.7708200    0.00000       Uiso       1.00
       C87          C  0.5000000  0.7990200  0.7571300    0.00000       Uiso       1.00
       C88          C  0.5000000  0.7317100  0.7972600    0.00000       Uiso       1.00
       C89          C  0.5000000  0.7012400  0.7502000    0.00000       Uiso       1.00
       C90          C  0.5000000  0.7747300  0.3341500    0.00000       Uiso       1.00
       C91          C  0.5000000  0.7238300  0.6961900    0.00000       Uiso       1.00
       C92          C  0.5000000  0.7206200  0.5965700    0.00000       Uiso       1.00
       C93          C  0.5000000  0.7356001  0.8316900    0.00000       Uiso       1.00
       C94          C  0.5000000  0.7627000  0.1986800    0.00000       Uiso       1.00
       C95          C  0.5000000  0.8306501  0.7543200    0.00000       Uiso       1.00
       C96          C  0.5000000  0.6678000  0.2763100    0.00000       Uiso       1.00
       C97          C  0.5000000  0.6546200  0.3055500    0.00000       Uiso       1.00
       C98          C  0.5000000  0.6243800  0.3080000    0.00000       Uiso       1.00
       C99          C  0.5000000  0.6073500  0.2811400    0.00000       Uiso       1.00
      C100          C  0.5000000  0.6204800  0.2520400    0.00000       Uiso       1.00
      C101          C  0.5000000  0.6506100  0.2496100    0.00000       Uiso       1.00
      C102          C  0.5000000  0.5758000  0.2824200    0.00000       Uiso       1.00
      C103          C  0.5000000  0.7465800  0.5476700    0.00000       Uiso       1.00
      C104          C  0.5000000  0.7741001  0.5338200    0.00000       Uiso       1.00
      C105          C  0.5000000  0.7769500  0.5015600    0.00000       Uiso       1.00
      C106          C  0.5000000  0.7521400  0.4826900    0.00000       Uiso       1.00
      C107          C  0.5000000  0.7246200  0.4965400    0.00000       Uiso       1.00
      C108          C  0.5000000  0.7217700  0.5288000    0.00000       Uiso       1.00
      C109          C  0.5000000  0.7568400  0.0468300    0.00000       Uiso       1.00
      C110          C  0.5000000  0.7783400  0.0239800    0.00000       Uiso       1.00
      C111          C  0.5000000  0.7706900  0.9926200    0.00000       Uiso       1.00
      C112          C  0.5000000  0.7413000  0.9835500    0.00000       Uiso       1.00
      C113          C  0.5000000  0.7197900  0.0064000    0.00000       Uiso       1.00
      C114          C  0.5000000  0.7274500  0.0377700    0.00000       Uiso       1.00
      C115          C  0.5000000  0.7530500  0.1339800    0.00000       Uiso       1.00
      C116          C  0.5000000  0.8477300  0.7810900    0.00000       Uiso       1.00
      C117          C  0.5000000  0.8778600  0.7787600    0.00000       Uiso       1.00
      C118          C  0.5000000  0.8911700  0.7496200    0.00000       Uiso       1.00
      C119          C  0.5000000  0.8741900  0.7228100    0.00000       Uiso       1.00
      C120          C  0.5000000  0.8439400  0.7251400    0.00000       Uiso       1.00
      C121          C  0.5000000  0.9227200  0.7470200    0.00000       Uiso       1.00
      C122          C  0.5000000  0.7863200  0.1779600    0.00000       Uiso       1.00
      C123          C  0.5000000  0.7815500  0.1457100    0.00000       Uiso       1.00
      C124          C  0.5000000  0.7297500  0.1544500    0.00000       Uiso       1.00
      C125          C  0.5000000  0.7345601  0.1862000    0.00000       Uiso       1.00
      C126          C  0.5000000  0.7119401  0.8523700    0.00000       Uiso       1.00
      C127          C  0.5000000  0.7166601  0.8846300    0.00000       Uiso       1.00
      C128          C  0.5000000  0.7451500  0.8964100    0.00000       Uiso       1.00
      C129          C  0.5000000  0.7684700  0.8759800    0.00000       Uiso       1.00
      C130          C  0.5000000  0.7637200  0.8442200    0.00000       Uiso       1.00
      C131          C  0.5000000  0.7522100  0.9295700    0.00000       Uiso       1.00
      C132          C  0.5000000  0.7459400  0.1008300    0.00000       Uiso       1.00
      C133          C  0.5000000  0.8016600  0.3495400    0.00000       Uiso       1.00
      C134          C  0.5000000  0.8028901  0.3821100    0.00000       Uiso       1.00
      C135          C  0.5000000  0.7772300  0.3996600    0.00000       Uiso       1.00
      C136          C  0.5000000  0.7505000  0.3843800    0.00000       Uiso       1.00
      C137          C  0.5000000  0.7493800  0.3522200    0.00000       Uiso       1.00
      C138          C  0.5000000  0.7780800  0.4337700    0.00000       Uiso       1.00
      C139          C  0.5000000  0.6969200  0.6807600    0.00000       Uiso       1.00
      C140          C  0.5000000  0.6957400  0.6481900    0.00000       Uiso       1.00
      C141          C  0.5000000  0.7214301  0.6306800    0.00000       Uiso       1.00
      C142          C  0.5000000  0.7481400  0.6460000    0.00000       Uiso       1.00
      C143          C  0.5000000  0.7492101  0.6781700    0.00000       Uiso       1.00
      C144          C  0.5000000  0.5304500  0.3081500    0.00000       Uiso       1.00
      C145          C  0.5000000  0.5152100  0.3361900    0.00000       Uiso       1.00
      C146          C  0.5000000  0.5150501  0.2801300    0.00000       Uiso       1.00
      C147          C  0.5000000  0.9848700  0.7426800    0.00000       Uiso       1.00
      C148          C  0.5000000  0.9848601  0.7987700    0.00000       Uiso       1.00
       H49          H  0.5000000  0.7150400  0.3237400    0.00000       Uiso       1.00
       H50          H  0.5000000  0.7922701  0.8096300    0.00000       Uiso       1.00
       H51          H  0.5000000  0.8199300  0.2906200    0.00000       Uiso       1.00
       H52          H  0.5000000  0.8145400  0.2320400    0.00000       Uiso       1.00
       H53          H  0.5000000  0.6835600  0.7978000    0.00000       Uiso       1.00
       H54          H  0.5000000  0.6785500  0.7396200    0.00000       Uiso       1.00
       H55          H  0.5000000  0.6988300  0.5840200    0.00000       Uiso       1.00
       H56          H  0.5000000  0.6685900  0.3273500    0.00000       Uiso       1.00
       H57          H  0.5000000  0.6136600  0.3317900    0.00000       Uiso       1.00
       H58          H  0.5000000  0.6065300  0.2302400    0.00000       Uiso       1.00
       H59          H  0.5000000  0.6612900  0.2257900    0.00000       Uiso       1.00
       H60          H  0.5000000  0.5636300  0.2594200    0.00000       Uiso       1.00
       H61          H  0.5000000  0.7944600  0.5488700    0.00000       Uiso       1.00
       H62          H  0.5000000  0.7994601  0.4905500    0.00000       Uiso       1.00
       H63          H  0.5000000  0.7042600  0.4815000    0.00000       Uiso       1.00
       H64          H  0.5000000  0.6992301  0.5397500    0.00000       Uiso       1.00
       H65          H  0.5000000  0.8022600  0.0308600    0.00000       Uiso       1.00
       H66          H  0.5000000  0.7885500  0.9743299    0.00000       Uiso       1.00
       H67          H  0.5000000  0.6959201  0.9993800    0.00000       Uiso       1.00
       H68          H  0.5000000  0.7095900  0.0560600    0.00000       Uiso       1.00
       H69          H  0.5000000  0.8369600  0.8048601    0.00000       Uiso       1.00
       H70          H  0.5000000  0.8917601  0.8006200    0.00000       Uiso       1.00
       H71          H  0.5000000  0.8850500  0.6990800    0.00000       Uiso       1.00
       H72          H  0.5000000  0.8300600  0.7032800    0.00000       Uiso       1.00
       H73          H  0.5000000  0.9333400  0.7231700    0.00000       Uiso       1.00
       H74          H  0.5000000  0.8095101  0.1872200    0.00000       Uiso       1.00
       H75          H  0.5000000  0.8008300  0.1291400    0.00000       Uiso       1.00
       H76          H  0.5000000  0.7065500  0.1452100    0.00000       Uiso       1.00
       H77          H  0.5000000  0.7148800  0.2022300    0.00000       Uiso       1.00
       H78          H  0.5000000  0.6887600  0.8430600    0.00000       Uiso       1.00
       H79          H  0.5000000  0.6973801  0.9011999    0.00000       Uiso       1.00
       H80          H  0.5000000  0.7916600  0.8852599    0.00000       Uiso       1.00
       H81          H  0.5000000  0.7834200  0.8282300    0.00000       Uiso       1.00
       H82          H  0.5000000  0.7763301  0.9355699    0.00000       Uiso       1.00
       H83          H  0.5000000  0.7218201  0.0948500    0.00000       Uiso       1.00
       H84          H  0.5000000  0.8227100  0.3356200    0.00000       Uiso       1.00
       H85          H  0.5000000  0.8248200  0.3943800    0.00000       Uiso       1.00
       H86          H  0.5000000  0.7294601  0.3983000    0.00000       Uiso       1.00
       H87          H  0.5000000  0.7271600  0.3405600    0.00000       Uiso       1.00
       H88          H  0.5000000  0.7998800  0.4463000    0.00000       Uiso       1.00
       H89          H  0.5000000  0.6758600  0.6946400    0.00000       Uiso       1.00
       H90          H  0.5000000  0.6738300  0.6358800    0.00000       Uiso       1.00
       H91          H  0.5000000  0.7692000  0.6321200    0.00000       Uiso       1.00
       H92          H  0.5000000  0.7714100  0.6898700    0.00000       Uiso       1.00
       H93          H  0.5000000  0.5275600  0.3590700    0.00000       Uiso       1.00
       H94          H  0.5000000  0.5272900  0.2571900    0.00000       Uiso       1.00
       H95          H  0.5000000  0.9724900  0.7198200    0.00000       Uiso       1.00
       H96          H  0.5000000  0.9725300  0.8216700    0.00000       Uiso       1.00
