data_ZnPc-Py
_audit_creation_date              0000-00-00
_audit_creation_method            'LanYouShi'
_symmetry_space_group_name_H-M    'P1'
_cell_length_a                    26.9799995
_cell_length_b                    26.9799995
_cell_length_c                    3.3380001
_cell_angle_alpha                 90.0000000
_cell_angle_beta                  90.0000000
_cell_angle_gamma                 90.0000000
loop_
_atom_site_label
_atom_site_type_symbol
_atom_site_fract_x
_atom_site_fract_y
_atom_site_fract_z
_atom_site_U_iso_or_equiv
_atom_site_adp_type
_atom_site_occupancy
        C1          C  0.0274620  0.4108600  0.5000000    0.00000       Uiso       1.00
        C2          C  0.0537060  0.4554300  0.5000000    0.00000       Uiso       1.00
        C3          C  0.1056740  0.4554300  0.5000000    0.00000       Uiso       1.00
        C4          C  0.2650000  0.4750000  0.5000000    0.00000       Uiso       1.00
        C5          C  0.3090000  0.4500000  0.5000000    0.00000       Uiso       1.00
        C6          C  0.3550000  0.4750000  0.5000000    0.00000       Uiso       1.00
        C7          C  0.4010000  0.4620000  0.5000000    0.00000       Uiso       1.00
        O1          O  0.2120250  0.5465910  0.5000000    0.00000       Uiso       1.00
        H1          H  0.0473070  0.3757974  0.5000000    0.00000       Uiso       1.00
        H2          H  0.1258186  0.4205386  0.5000000    0.00000       Uiso       1.00
        H3          H  0.3092781  0.4097119  0.5000000    0.00000       Uiso       1.00
        C8          C  0.9725380  0.5891400  0.5000000    0.00000       Uiso       1.00
        C9          C  0.9462940  0.5445700  0.5000000    0.00000       Uiso       1.00
       C10          C  0.8943260  0.5445700  0.5000000    0.00000       Uiso       1.00
       C11          C  0.7350001  0.5250000  0.5000000    0.00000       Uiso       1.00
       C12          C  0.6910000  0.5500000  0.5000000    0.00000       Uiso       1.00
       C13          C  0.6450000  0.5250000  0.5000000    0.00000       Uiso       1.00
       C14          C  0.5990000  0.5380000  0.5000000    0.00000       Uiso       1.00
        O2          O  0.7879750  0.4534090  0.5000000    0.00000       Uiso       1.00
        H4          H  0.9526930  0.6242026  0.5000000    0.00000       Uiso       1.00
        H5          H  0.8741814  0.5794614  0.5000000    0.00000       Uiso       1.00
        H6          H  0.6907219  0.5902882  0.5000000    0.00000       Uiso       1.00
       C15          C  0.5891400  0.0274620  0.5000000    0.00000       Uiso       1.00
       C16          C  0.5445700  0.0537060  0.5000000    0.00000       Uiso       1.00
       C17          C  0.5445700  0.1056740  0.5000000    0.00000       Uiso       1.00
       C18          C  0.5250000  0.2650000  0.5000000    0.00000       Uiso       1.00
       C19          C  0.5500000  0.3090000  0.5000000    0.00000       Uiso       1.00
       C20          C  0.5250000  0.3550000  0.5000000    0.00000       Uiso       1.00
       C21          C  0.5380000  0.4010000  0.5000000    0.00000       Uiso       1.00
        O3          O  0.4534090  0.2120250  0.5000000    0.00000       Uiso       1.00
        H7          H  0.6242026  0.0473070  0.5000000    0.00000       Uiso       1.00
        H8          H  0.5794614  0.1258186  0.5000000    0.00000       Uiso       1.00
        H9          H  0.5902882  0.3092781  0.5000000    0.00000       Uiso       1.00
       C22          C  0.4108600  0.9725380  0.5000000    0.00000       Uiso       1.00
       C23          C  0.4554300  0.9462940  0.5000000    0.00000       Uiso       1.00
       C24          C  0.4554300  0.8943260  0.5000000    0.00000       Uiso       1.00
       C25          C  0.4750000  0.7350001  0.5000000    0.00000       Uiso       1.00
       C26          C  0.4500000  0.6910000  0.5000000    0.00000       Uiso       1.00
       C27          C  0.4750000  0.6450000  0.5000000    0.00000       Uiso       1.00
       C28          C  0.4620000  0.5990000  0.5000000    0.00000       Uiso       1.00
        O4          O  0.5465910  0.7879750  0.5000000    0.00000       Uiso       1.00
       H10          H  0.3757974  0.9526930  0.5000000    0.00000       Uiso       1.00
       H11          H  0.4205386  0.8741814  0.5000000    0.00000       Uiso       1.00
       H12          H  0.4097119  0.6907219  0.5000000    0.00000       Uiso       1.00
       C29          C  0.9725380  0.4108600  0.5000000    0.00000       Uiso       1.00
       C30          C  0.9462940  0.4554300  0.5000000    0.00000       Uiso       1.00
       C31          C  0.8943260  0.4554300  0.5000000    0.00000       Uiso       1.00
       C32          C  0.7350001  0.4750000  0.5000000    0.00000       Uiso       1.00
       C33          C  0.6910000  0.4500000  0.5000000    0.00000       Uiso       1.00
       C34          C  0.6450000  0.4750000  0.5000000    0.00000       Uiso       1.00
       C35          C  0.5990000  0.4620000  0.5000000    0.00000       Uiso       1.00
        O5          O  0.7879750  0.5465910  0.5000000    0.00000       Uiso       1.00
       H13          H  0.9526930  0.3757974  0.5000000    0.00000       Uiso       1.00
       H14          H  0.8741814  0.4205386  0.5000000    0.00000       Uiso       1.00
       H15          H  0.6907219  0.4097119  0.5000000    0.00000       Uiso       1.00
       C36          C  0.0274620  0.5891400  0.5000000    0.00000       Uiso       1.00
       C37          C  0.0537060  0.5445700  0.5000000    0.00000       Uiso       1.00
       C38          C  0.1056740  0.5445700  0.5000000    0.00000       Uiso       1.00
       C39          C  0.2650000  0.5250000  0.5000000    0.00000       Uiso       1.00
       C40          C  0.3090000  0.5500000  0.5000000    0.00000       Uiso       1.00
       C41          C  0.3550000  0.5250000  0.5000000    0.00000       Uiso       1.00
       C42          C  0.4010000  0.5380000  0.5000000    0.00000       Uiso       1.00
        O6          O  0.2120250  0.4534090  0.5000000    0.00000       Uiso       1.00
       H16          H  0.0473070  0.6242026  0.5000000    0.00000       Uiso       1.00
       H17          H  0.1258186  0.5794614  0.5000000    0.00000       Uiso       1.00
       H18          H  0.3092781  0.5902882  0.5000000    0.00000       Uiso       1.00
       C43          C  0.4108600  0.0274620  0.5000000    0.00000       Uiso       1.00
       C44          C  0.4554300  0.0537060  0.5000000    0.00000       Uiso       1.00
       C45          C  0.4554300  0.1056740  0.5000000    0.00000       Uiso       1.00
       C46          C  0.4750000  0.2650000  0.5000000    0.00000       Uiso       1.00
       C47          C  0.4500000  0.3090000  0.5000000    0.00000       Uiso       1.00
       C48          C  0.4750000  0.3550000  0.5000000    0.00000       Uiso       1.00
       C49          C  0.4620000  0.4010000  0.5000000    0.00000       Uiso       1.00
        O7          O  0.5465910  0.2120250  0.5000000    0.00000       Uiso       1.00
       H19          H  0.3757974  0.0473070  0.5000000    0.00000       Uiso       1.00
       H20          H  0.4205386  0.1258186  0.5000000    0.00000       Uiso       1.00
       H21          H  0.4097119  0.3092781  0.5000000    0.00000       Uiso       1.00
       C50          C  0.5891400  0.9725380  0.5000000    0.00000       Uiso       1.00
       C51          C  0.5445700  0.9462940  0.5000000    0.00000       Uiso       1.00
       C52          C  0.5445700  0.8943260  0.5000000    0.00000       Uiso       1.00
       C53          C  0.5250000  0.7350001  0.5000000    0.00000       Uiso       1.00
       C54          C  0.5500000  0.6910000  0.5000000    0.00000       Uiso       1.00
       C55          C  0.5250000  0.6450000  0.5000000    0.00000       Uiso       1.00
       C56          C  0.5380000  0.5990000  0.5000000    0.00000       Uiso       1.00
        O8          O  0.4534090  0.7879750  0.5000000    0.00000       Uiso       1.00
       H22          H  0.6242026  0.9526930  0.5000000    0.00000       Uiso       1.00
       H23          H  0.5794614  0.8741814  0.5000000    0.00000       Uiso       1.00
       H24          H  0.5902882  0.6907219  0.5000000    0.00000       Uiso       1.00
       C57          C  0.0274620  0.5000000  0.5000000    0.00000       Uiso       1.00
       C58          C  0.1312880  0.5000000  0.5000000    0.00000       Uiso       1.00
        B1          B  0.1828230  0.5000000  0.5000000    0.00000       Uiso       1.00
        N1          N  0.4300000  0.5000000  0.5000000    0.00000       Uiso       1.00
       C59          C  0.9725380  0.5000000  0.5000000    0.00000       Uiso       1.00
       C60          C  0.8687120  0.5000000  0.5000000    0.00000       Uiso       1.00
        B2          B  0.8171770  0.5000000  0.5000000    0.00000       Uiso       1.00
        N2          N  0.5700000  0.5000000  0.5000000    0.00000       Uiso       1.00
       C61          C  0.5000000  0.0274620  0.5000000    0.00000       Uiso       1.00
       C62          C  0.5000000  0.1312880  0.5000000    0.00000       Uiso       1.00
        B3          B  0.5000000  0.1828230  0.5000000    0.00000       Uiso       1.00
        N3          N  0.5000000  0.4300000  0.5000000    0.00000       Uiso       1.00
       C63          C  0.5000000  0.9725380  0.5000000    0.00000       Uiso       1.00
       C64          C  0.5000000  0.8687120  0.5000000    0.00000       Uiso       1.00
        B4          B  0.5000000  0.8171770  0.5000000    0.00000       Uiso       1.00
        N4          N  0.5000000  0.5700000  0.5000000    0.00000       Uiso       1.00
        N5          N  0.4160000  0.5840000  0.5000000    0.00000       Uiso       1.00
        N6          N  0.5840000  0.4160000  0.5000000    0.00000       Uiso       1.00
        N7          N  0.4160000  0.4160000  0.5000000    0.00000       Uiso       1.00
        N8          N  0.5840000  0.5840000  0.5000000    0.00000       Uiso       1.00
       Zn1         Zn  0.5000000  0.5000000  0.5000000    0.00000       Uiso       1.00
