data_crystal
 
_cell_length_a    8.38180
_cell_length_b    8.38180
_cell_length_c    3.49200
_cell_angle_alpha 90.00000
_cell_angle_beta  90.00000
_cell_angle_gamma 120.00000
 
_symmetry_space_group_name_Hall 'P 1'
_symmetry_space_group_name_H-M  'P 1'
 
loop_
_symmetry_equiv_pos_as_xyz
 'x,y,z' 
 
loop_
_atom_site_label
_atom_site_type_symbol
_atom_site_fract_x
_atom_site_fract_y
_atom_site_fract_z
_atom_site_charge
C          C       0.83522   0.33294   0.50000   0.0000000000
C          C       0.66706   0.50228   0.50000   0.0000000000
C          C       0.49773   0.16479   0.50000   0.0000000000
C          C       0.16479   0.66706   0.50000   0.0000000000
C          C       0.33294   0.49773   0.50000   0.0000000000
C          C       0.50228   0.83522   0.50000   0.0000000000
C          C       0.33294   0.83522   0.50000   0.0000000000
C          C       0.50228   0.66706   0.50000   0.0000000000
C          C       0.16479   0.49773   0.50000   0.0000000000
C          C       0.66706   0.16479   0.50000   0.0000000000
C          C       0.49773   0.33294   0.50000   0.0000000000
C          C       0.83522   0.50228   0.50000   0.0000000000
N          N       0.33833   0.33833   0.50000   0.0000000000
N          N       0.66167   0.00000   0.50000   0.0000000000
N          N       0.00000   0.66167   0.50000   0.0000000000
N          N       0.66167   0.66167   0.50000   0.0000000000
N          N       0.33833   0.00000   0.50000   0.0000000000
N          N       0.00000   0.33833   0.50000   0.0000000000
