data_crystal
 
_cell_length_a    15.40600
_cell_length_b    15.40600
_cell_length_c    8.40000
_cell_angle_alpha 90.00000
_cell_angle_beta  90.00000
_cell_angle_gamma 120.00000
 
_symmetry_space_group_name_Hall 'P 1'
_symmetry_space_group_name_H-M  'P 1'
 
loop_
_symmetry_equiv_pos_as_xyz
 'x,y,z' 
 
loop_
_atom_site_label
_atom_site_type_symbol
_atom_site_fract_x
_atom_site_fract_y
_atom_site_fract_z
_atom_site_charge
C          C       0.11835   0.04686  -0.00159   0.0000000000
N          N       0.06967   0.10888  -0.03658   0.0000000000
N          N       0.23139   0.09555  -0.00183   0.0000000000
C          C       0.29536   0.20513  -0.04220   0.0000000000
C          C       0.38058   0.24895   0.08113   0.0000000000
N          N       0.44402   0.20195   0.04561   0.0000000000
C          C       0.39354   0.09212   0.00160   0.0000000000
C          C       0.28151   0.03702   0.04883   0.0000000000
C          C       0.55698   0.26580   0.04323   0.0000000000
N          N       0.62119   0.21887   0.01056   0.0000000000
H          H       0.32759   0.21394  -0.16718   0.0000000000
H          H       0.25050   0.24548  -0.03325   0.0000000000
H          H       0.34840   0.22818   0.20656   0.0000000000
H          H       0.42563   0.33392   0.06771   0.0000000000
C          C       0.44642   0.04330   0.08821   0.0000000000
H          H       0.39931   0.08453  -0.13243   0.0000000000
H          H       0.27491   0.02648   0.18349   0.0000000000
H          H       0.24139   0.96043  -0.01125   0.0000000000
H          H       0.49652   0.03205   0.00071   0.0000000000
H          H       0.38788   0.96764   0.13854   0.0000000000
H          H       0.49401   0.09406   0.18949   0.0000000000
C          C       0.95314   0.07149  -0.00159   0.0000000000
N          N       0.89112   0.96079  -0.03658   0.0000000000
N          N       0.90445   0.13584  -0.00183   0.0000000000
C          C       0.79487   0.09023  -0.04220   0.0000000000
C          C       0.75105   0.13163   0.08113   0.0000000000
N          N       0.79805   0.24207   0.04561   0.0000000000
C          C       0.90788   0.30142   0.00160   0.0000000000
C          C       0.96298   0.24449   0.04883   0.0000000000
C          C       0.73420   0.29118   0.04323   0.0000000000
N          N       0.78113   0.40232   0.01056   0.0000000000
H          H       0.78606   0.11365  -0.16718   0.0000000000
H          H       0.75452   0.00502  -0.03325   0.0000000000
H          H       0.77182   0.12022   0.20656   0.0000000000
H          H       0.66608   0.09171   0.06771   0.0000000000
C          C       0.95670   0.40312   0.08821   0.0000000000
H          H       0.91547   0.31478  -0.13243   0.0000000000
H          H       0.97352   0.24843   0.18349   0.0000000000
H          H       0.03957   0.28096  -0.01125   0.0000000000
H          H       0.96795   0.46447   0.00071   0.0000000000
H          H       0.03236   0.42024   0.13854   0.0000000000
H          H       0.90594   0.39995   0.18949   0.0000000000
C          C       0.92851   0.88165  -0.00159   0.0000000000
N          N       0.03921   0.93033  -0.03658   0.0000000000
N          N       0.86416   0.76861  -0.00183   0.0000000000
C          C       0.90977   0.70464  -0.04220   0.0000000000
C          C       0.86837   0.61942   0.08113   0.0000000000
N          N       0.75793   0.55598   0.04561   0.0000000000
C          C       0.69858   0.60646   0.00160   0.0000000000
C          C       0.75551   0.71849   0.04883   0.0000000000
C          C       0.70882   0.44302   0.04323   0.0000000000
N          N       0.59768   0.37881   0.01056   0.0000000000
H          H       0.88635   0.67241  -0.16718   0.0000000000
H          H       0.99498   0.74950  -0.03325   0.0000000000
H          H       0.87978   0.65160   0.20656   0.0000000000
H          H       0.90829   0.57437   0.06771   0.0000000000
C          C       0.59688   0.55358   0.08821   0.0000000000
H          H       0.68522   0.60069  -0.13243   0.0000000000
H          H       0.75157   0.72509   0.18349   0.0000000000
H          H       0.71904   0.75861  -0.01125   0.0000000000
H          H       0.53553   0.50348   0.00071   0.0000000000
H          H       0.57976   0.61212   0.13854   0.0000000000
H          H       0.60005   0.50599   0.18949   0.0000000000
C          C       0.88165   0.95314   0.49841   0.0000000000
N          N       0.93033   0.89112   0.46342   0.0000000000
N          N       0.76861   0.90445   0.49817   0.0000000000
C          C       0.70464   0.79487   0.45780   0.0000000000
C          C       0.61942   0.75105   0.58113   0.0000000000
N          N       0.55598   0.79805   0.54561   0.0000000000
C          C       0.60646   0.90788   0.50160   0.0000000000
C          C       0.71849   0.96298   0.54883   0.0000000000
C          C       0.44302   0.73420   0.54323   0.0000000000
N          N       0.37881   0.78113   0.51056   0.0000000000
H          H       0.67241   0.78606   0.33282   0.0000000000
H          H       0.74950   0.75452   0.46675   0.0000000000
H          H       0.65160   0.77182   0.70656   0.0000000000
H          H       0.57437   0.66608   0.56771   0.0000000000
C          C       0.55358   0.95670   0.58821   0.0000000000
H          H       0.60069   0.91547   0.36757   0.0000000000
H          H       0.72509   0.97352   0.68349   0.0000000000
H          H       0.75861   0.03957   0.48875   0.0000000000
H          H       0.50348   0.96795   0.50071   0.0000000000
H          H       0.61212   0.03236   0.63854   0.0000000000
H          H       0.50599   0.90594   0.68949   0.0000000000
C          C       0.04686   0.92851   0.49841   0.0000000000
N          N       0.10888   0.03921   0.46342   0.0000000000
N          N       0.09555   0.86416   0.49817   0.0000000000
C          C       0.20513   0.90977   0.45780   0.0000000000
C          C       0.24895   0.86837   0.58113   0.0000000000
N          N       0.20195   0.75793   0.54561   0.0000000000
C          C       0.09212   0.69858   0.50160   0.0000000000
C          C       0.03702   0.75551   0.54883   0.0000000000
C          C       0.26580   0.70882   0.54323   0.0000000000
N          N       0.21887   0.59768   0.51056   0.0000000000
H          H       0.21394   0.88635   0.33282   0.0000000000
H          H       0.24548   0.99498   0.46675   0.0000000000
H          H       0.22818   0.87978   0.70656   0.0000000000
H          H       0.33392   0.90829   0.56771   0.0000000000
C          C       0.04330   0.59688   0.58821   0.0000000000
H          H       0.08453   0.68522   0.36757   0.0000000000
H          H       0.02648   0.75157   0.68349   0.0000000000
H          H       0.96043   0.71904   0.48875   0.0000000000
H          H       0.03205   0.53553   0.50071   0.0000000000
H          H       0.96764   0.57976   0.63854   0.0000000000
H          H       0.09406   0.60005   0.68949   0.0000000000
C          C       0.07149   0.11835   0.49841   0.0000000000
N          N       0.96079   0.06967   0.46342   0.0000000000
N          N       0.13584   0.23139   0.49817   0.0000000000
C          C       0.09023   0.29536   0.45780   0.0000000000
C          C       0.13163   0.38058   0.58113   0.0000000000
N          N       0.24207   0.44402   0.54561   0.0000000000
C          C       0.30142   0.39354   0.50160   0.0000000000
C          C       0.24449   0.28151   0.54883   0.0000000000
C          C       0.29118   0.55698   0.54323   0.0000000000
N          N       0.40232   0.62119   0.51056   0.0000000000
H          H       0.11365   0.32759   0.33282   0.0000000000
H          H       0.00502   0.25050   0.46675   0.0000000000
H          H       0.12022   0.34840   0.70656   0.0000000000
H          H       0.09171   0.42563   0.56771   0.0000000000
C          C       0.40312   0.44642   0.58821   0.0000000000
H          H       0.31478   0.39931   0.36757   0.0000000000
H          H       0.24843   0.27491   0.68349   0.0000000000
H          H       0.28096   0.24139   0.48875   0.0000000000
H          H       0.46447   0.49652   0.50071   0.0000000000
H          H       0.42024   0.38788   0.63854   0.0000000000
H          H       0.39995   0.49401   0.68949   0.0000000000
