data_COF-1-forcite
_audit_creation_date              0000-00-00
_audit_creation_method            'LanYouShi'
_symmetry_space_group_name_H-M    'P1'
_cell_length_a                    15.6528997
_cell_length_b                    15.6528997
_cell_length_c                    6.7005000
_cell_angle_alpha                 90.0000000
_cell_angle_beta                  90.0000000
_cell_angle_gamma                 120.0000000
loop_
_atom_site_label
_atom_site_type_symbol
_atom_site_fract_x
_atom_site_fract_y
_atom_site_fract_z
_atom_site_U_iso_or_equiv
_atom_site_adp_type
_atom_site_occupancy
        B1          B  0.0541325  0.1082649  0.2500000    0.00000       Uiso       1.00
        O1          O  0.3883087  0.7766173  0.2500000    0.00000       Uiso       1.00
        C1          C  0.2195314  0.4390628  0.2500000    0.00000       Uiso       1.00
        B2          B  0.8917351  0.9458675  0.2500000    0.00000       Uiso       1.00
        O2          O  0.2233827  0.6116914  0.2500000    0.00000       Uiso       1.00
        C2          C  0.5609373  0.7804686  0.2500000    0.00000       Uiso       1.00
        B3          B  0.0541325  0.9458675  0.2500000    0.00000       Uiso       1.00
        O3          O  0.3883087  0.6116914  0.2500000    0.00000       Uiso       1.00
        C3          C  0.2195314  0.7804686  0.2500000    0.00000       Uiso       1.00
        B4          B  0.9458675  0.8917351  0.7500000    0.00000       Uiso       1.00
        O4          O  0.6116913  0.2233827  0.7500000    0.00000       Uiso       1.00
        C4          C  0.7804686  0.5609372  0.7500000    0.00000       Uiso       1.00
        B5          B  0.1082650  0.0541325  0.7500000    0.00000       Uiso       1.00
        O5          O  0.7766173  0.3883087  0.7500000    0.00000       Uiso       1.00
        C5          C  0.4390627  0.2195314  0.7500000    0.00000       Uiso       1.00
        B6          B  0.9458675  0.0541325  0.7500000    0.00000       Uiso       1.00
        O6          O  0.6116914  0.3883087  0.7500000    0.00000       Uiso       1.00
        C6          C  0.7804686  0.2195314  0.7500000    0.00000       Uiso       1.00
        B7          B  0.4417575  0.7208788  0.2500000    0.00000       Uiso       1.00
        B8          B  0.2791213  0.7208788  0.2500000    0.00000       Uiso       1.00
        B9          B  0.2791213  0.5582426  0.2500000    0.00000       Uiso       1.00
       B10          B  0.5582426  0.2791213  0.7500000    0.00000       Uiso       1.00
       B11          B  0.7208787  0.2791213  0.7500000    0.00000       Uiso       1.00
       B12          B  0.7208787  0.4417575  0.7500000    0.00000       Uiso       1.00
        O7          O  0.1098964  0.0549482  0.2500000    0.00000       Uiso       1.00
        O8          O  0.9450518  0.0549482  0.2500000    0.00000       Uiso       1.00
        O9          O  0.9450518  0.8901036  0.2500000    0.00000       Uiso       1.00
       O10          O  0.8901036  0.9450518  0.7500000    0.00000       Uiso       1.00
       O11          O  0.0549482  0.9450518  0.7500000    0.00000       Uiso       1.00
       O12          O  0.0549482  0.1098964  0.7500000    0.00000       Uiso       1.00
        C7          C  0.1155129  0.3851184  0.2500000    0.00000       Uiso       1.00
        C8          C  0.2174935  0.2809083  0.2500000    0.00000       Uiso       1.00
        H1          H  0.0739364  0.4234144  0.2500000    0.00000       Uiso       1.00
        H2          H  0.2589931  0.2425133  0.2500000    0.00000       Uiso       1.00
        C9          C  0.6148816  0.7303945  0.2500000    0.00000       Uiso       1.00
       C10          C  0.7190917  0.9365852  0.2500000    0.00000       Uiso       1.00
        H3          H  0.5765856  0.6505220  0.2500000    0.00000       Uiso       1.00
        H4          H  0.7574867  0.0164798  0.2500000    0.00000       Uiso       1.00
       C11          C  0.2696055  0.8844871  0.2500000    0.00000       Uiso       1.00
       C12          C  0.0634148  0.7825065  0.2500000    0.00000       Uiso       1.00
        H5          H  0.3494780  0.9260636  0.2500000    0.00000       Uiso       1.00
        H6          H  0.9835203  0.7410070  0.2500000    0.00000       Uiso       1.00
       C13          C  0.8844871  0.6148816  0.7500000    0.00000       Uiso       1.00
       C14          C  0.7825065  0.7190917  0.7500000    0.00000       Uiso       1.00
        H7          H  0.9260637  0.5765856  0.7500000    0.00000       Uiso       1.00
        H8          H  0.7410070  0.7574867  0.7500000    0.00000       Uiso       1.00
       C15          C  0.3851184  0.2696055  0.7500000    0.00000       Uiso       1.00
       C16          C  0.2809083  0.0634148  0.7500000    0.00000       Uiso       1.00
        H9          H  0.4234144  0.3494781  0.7500000    0.00000       Uiso       1.00
       H10          H  0.2425133  0.9835203  0.7500000    0.00000       Uiso       1.00
       C17          C  0.7303945  0.1155129  0.7500000    0.00000       Uiso       1.00
       C18          C  0.9365852  0.2174935  0.7500000    0.00000       Uiso       1.00
       H11          H  0.6505219  0.0739364  0.7500000    0.00000       Uiso       1.00
       H12          H  0.0164798  0.2589931  0.7500000    0.00000       Uiso       1.00
       C19          C  0.3851184  0.1155129  0.7500000    0.00000       Uiso       1.00
       C20          C  0.2809083  0.2174935  0.7500000    0.00000       Uiso       1.00
       H13          H  0.4234144  0.0739364  0.7500000    0.00000       Uiso       1.00
       H14          H  0.2425133  0.2589931  0.7500000    0.00000       Uiso       1.00
       C21          C  0.7303945  0.6148816  0.7500000    0.00000       Uiso       1.00
       C22          C  0.9365852  0.7190917  0.7500000    0.00000       Uiso       1.00
       H15          H  0.6505220  0.5765856  0.7500000    0.00000       Uiso       1.00
       H16          H  0.0164797  0.7574867  0.7500000    0.00000       Uiso       1.00
       C23          C  0.8844871  0.2696055  0.7500000    0.00000       Uiso       1.00
       C24          C  0.7825065  0.0634148  0.7500000    0.00000       Uiso       1.00
       H17          H  0.9260636  0.3494781  0.7500000    0.00000       Uiso       1.00
       H18          H  0.7410070  0.9835203  0.7500000    0.00000       Uiso       1.00
       C25          C  0.6148816  0.8844871  0.2500000    0.00000       Uiso       1.00
       C26          C  0.7190917  0.7825065  0.2500000    0.00000       Uiso       1.00
       H19          H  0.5765855  0.9260636  0.2500000    0.00000       Uiso       1.00
       H20          H  0.7574867  0.7410070  0.2500000    0.00000       Uiso       1.00
       C27          C  0.2696055  0.3851184  0.2500000    0.00000       Uiso       1.00
       C28          C  0.0634148  0.2809083  0.2500000    0.00000       Uiso       1.00
       H21          H  0.3494780  0.4234144  0.2500000    0.00000       Uiso       1.00
       H22          H  0.9835202  0.2425133  0.2500000    0.00000       Uiso       1.00
       C29          C  0.1155129  0.7303945  0.2500000    0.00000       Uiso       1.00
       C30          C  0.2174935  0.9365852  0.2500000    0.00000       Uiso       1.00
       H23          H  0.0739364  0.6505220  0.2500000    0.00000       Uiso       1.00
       H24          H  0.2589931  0.0164798  0.2500000    0.00000       Uiso       1.00
       C31          C  0.1135505  0.8864495  0.2500000    0.00000       Uiso       1.00
       C32          C  0.1135505  0.2271010  0.2500000    0.00000       Uiso       1.00
       C33          C  0.7728990  0.8864495  0.2500000    0.00000       Uiso       1.00
       C34          C  0.8864496  0.1135505  0.7500000    0.00000       Uiso       1.00
       C35          C  0.8864495  0.7728991  0.7500000    0.00000       Uiso       1.00
       C36          C  0.2271010  0.1135505  0.7500000    0.00000       Uiso       1.00
