data_COF-10
_audit_creation_date              0000-00-00
_audit_creation_method            'LanYouShi'
_symmetry_space_group_name_H-M    'P1'
_cell_length_a                    37.8098984
_cell_length_b                    37.8098984
_cell_length_c                    3.4763000
_cell_angle_alpha                 90.0000000
_cell_angle_beta                  90.0000000
_cell_angle_gamma                 120.0000000
loop_
_atom_site_label
_atom_site_type_symbol
_atom_site_fract_x
_atom_site_fract_y
_atom_site_fract_z
_atom_site_U_iso_or_equiv
_atom_site_adp_type
_atom_site_occupancy
        B1          B  0.8426901  0.4213450  0.5000000    0.00000       Uiso       1.00
        C1          C  0.8899500  0.4449750  0.5000000    0.00000       Uiso       1.00
        C2          C  0.9768301  0.4884150  0.5000000    0.00000       Uiso       1.00
        B2          B  0.5786550  0.4213450  0.5000000    0.00000       Uiso       1.00
        C3          C  0.5550250  0.4449750  0.5000000    0.00000       Uiso       1.00
        C4          C  0.5115850  0.4884150  0.5000000    0.00000       Uiso       1.00
        B3          B  0.5786550  0.1573100  0.5000000    0.00000       Uiso       1.00
        C5          C  0.5550250  0.1100500  0.5000000    0.00000       Uiso       1.00
        C6          C  0.5115850  0.0231700  0.5000000    0.00000       Uiso       1.00
        B4          B  0.1573100  0.5786550  0.5000000    0.00000       Uiso       1.00
        C7          C  0.1100500  0.5550250  0.5000000    0.00000       Uiso       1.00
        C8          C  0.0231700  0.5115851  0.5000000    0.00000       Uiso       1.00
        B5          B  0.4213450  0.5786550  0.5000000    0.00000       Uiso       1.00
        C9          C  0.4449750  0.5550250  0.5000000    0.00000       Uiso       1.00
       C10          C  0.4884150  0.5115851  0.5000000    0.00000       Uiso       1.00
        B6          B  0.4213450  0.8426901  0.5000000    0.00000       Uiso       1.00
       C11          C  0.4449750  0.8899500  0.5000000    0.00000       Uiso       1.00
       C12          C  0.4884150  0.9768300  0.5000000    0.00000       Uiso       1.00
        O1          O  0.8177801  0.3765000  0.5000000    0.00000       Uiso       1.00
       C13          C  0.9115000  0.4239000  0.5000000    0.00000       Uiso       1.00
       C14          C  0.9541700  0.4451400  0.5000000    0.00000       Uiso       1.00
       C15          C  0.7044700  0.3332300  0.5000000    0.00000       Uiso       1.00
       C16          C  0.7788700  0.3714400  0.5000000    0.00000       Uiso       1.00
       C17          C  0.7427700  0.3343600  0.5000000    0.00000       Uiso       1.00
        H1          H  0.7461500  0.3077900  0.5000000    0.00000       Uiso       1.00
        H2          H  0.8954301  0.3908100  0.5000000    0.00000       Uiso       1.00
        H3          H  0.9683800  0.4266200  0.5000000    0.00000       Uiso       1.00
        O2          O  0.6235000  0.4412800  0.5000000    0.00000       Uiso       1.00
       C18          C  0.5761000  0.4876000  0.5000000    0.00000       Uiso       1.00
       C19          C  0.5548600  0.5090300  0.5000000    0.00000       Uiso       1.00
       C20          C  0.6667700  0.3712400  0.5000000    0.00000       Uiso       1.00
       C21          C  0.6285600  0.4074300  0.5000000    0.00000       Uiso       1.00
       C22          C  0.6656401  0.4084100  0.5000000    0.00000       Uiso       1.00
        H4          H  0.6922100  0.4383600  0.5000000    0.00000       Uiso       1.00
        H5          H  0.6091900  0.5046201  0.5000000    0.00000       Uiso       1.00
        H6          H  0.5733800  0.5417600  0.5000000    0.00000       Uiso       1.00
        O3          O  0.5587201  0.1822200  0.5000000    0.00000       Uiso       1.00
       C23          C  0.5124000  0.0885000  0.5000000    0.00000       Uiso       1.00
       C24          C  0.4909700  0.0458300  0.5000000    0.00000       Uiso       1.00
       C25          C  0.6287600  0.2955300  0.5000000    0.00000       Uiso       1.00
       C26          C  0.5925701  0.2211300  0.5000000    0.00000       Uiso       1.00
       C27          C  0.5915900  0.2572300  0.5000000    0.00000       Uiso       1.00
        H7          H  0.5616400  0.2538500  0.5000000    0.00000       Uiso       1.00
        H8          H  0.4953800  0.1045700  0.5000000    0.00000       Uiso       1.00
        H9          H  0.4582401  0.0316200  0.5000000    0.00000       Uiso       1.00
        O4          O  0.1822200  0.6235000  0.5000000    0.00000       Uiso       1.00
       C28          C  0.0885000  0.5761000  0.5000000    0.00000       Uiso       1.00
       C29          C  0.0458300  0.5548601  0.5000000    0.00000       Uiso       1.00
       C30          C  0.2955300  0.6667700  0.5000000    0.00000       Uiso       1.00
       C31          C  0.2211300  0.6285601  0.5000000    0.00000       Uiso       1.00
       C32          C  0.2572300  0.6656401  0.5000000    0.00000       Uiso       1.00
       H10          H  0.2538500  0.6922100  0.5000000    0.00000       Uiso       1.00
       H11          H  0.1045700  0.6091900  0.5000000    0.00000       Uiso       1.00
       H12          H  0.0316200  0.5733801  0.5000000    0.00000       Uiso       1.00
        O5          O  0.3765000  0.5587201  0.5000000    0.00000       Uiso       1.00
       C33          C  0.4239000  0.5124001  0.5000000    0.00000       Uiso       1.00
       C34          C  0.4451400  0.4909700  0.5000000    0.00000       Uiso       1.00
       C35          C  0.3332300  0.6287600  0.5000000    0.00000       Uiso       1.00
       C36          C  0.3714400  0.5925701  0.5000000    0.00000       Uiso       1.00
       C37          C  0.3343600  0.5915900  0.5000000    0.00000       Uiso       1.00
       H13          H  0.3077900  0.5616400  0.5000000    0.00000       Uiso       1.00
       H14          H  0.3908100  0.4953800  0.5000000    0.00000       Uiso       1.00
       H15          H  0.4266200  0.4582401  0.5000000    0.00000       Uiso       1.00
        O6          O  0.4412800  0.8177801  0.5000000    0.00000       Uiso       1.00
       C38          C  0.4876000  0.9115000  0.5000000    0.00000       Uiso       1.00
       C39          C  0.5090300  0.9541700  0.5000000    0.00000       Uiso       1.00
       C40          C  0.3712400  0.7044700  0.5000000    0.00000       Uiso       1.00
       C41          C  0.4074300  0.7788700  0.5000000    0.00000       Uiso       1.00
       C42          C  0.4084100  0.7427701  0.5000000    0.00000       Uiso       1.00
       H16          H  0.4383600  0.7461501  0.5000000    0.00000       Uiso       1.00
       H17          H  0.5046200  0.8954300  0.5000000    0.00000       Uiso       1.00
       H18          H  0.5417600  0.9683800  0.5000000    0.00000       Uiso       1.00
        O7          O  0.3765000  0.8177801  0.5000000    0.00000       Uiso       1.00
       C43          C  0.4239000  0.9115000  0.5000000    0.00000       Uiso       1.00
       C44          C  0.4451400  0.9541700  0.5000000    0.00000       Uiso       1.00
       C45          C  0.3332300  0.7044700  0.5000000    0.00000       Uiso       1.00
       C46          C  0.3714400  0.7788700  0.5000000    0.00000       Uiso       1.00
       C47          C  0.3343600  0.7427701  0.5000000    0.00000       Uiso       1.00
       H19          H  0.3077900  0.7461501  0.5000000    0.00000       Uiso       1.00
       H20          H  0.3908100  0.8954300  0.5000000    0.00000       Uiso       1.00
       H21          H  0.4266200  0.9683800  0.5000000    0.00000       Uiso       1.00
        O8          O  0.4412800  0.6235000  0.5000000    0.00000       Uiso       1.00
       C48          C  0.4876000  0.5761000  0.5000000    0.00000       Uiso       1.00
       C49          C  0.5090300  0.5548601  0.5000000    0.00000       Uiso       1.00
       C50          C  0.3712400  0.6667700  0.5000000    0.00000       Uiso       1.00
       C51          C  0.4074300  0.6285601  0.5000000    0.00000       Uiso       1.00
       C52          C  0.4084100  0.6656401  0.5000000    0.00000       Uiso       1.00
       H22          H  0.4383600  0.6922100  0.5000000    0.00000       Uiso       1.00
       H23          H  0.5046201  0.6091900  0.5000000    0.00000       Uiso       1.00
       H24          H  0.5417600  0.5733801  0.5000000    0.00000       Uiso       1.00
        O9          O  0.1822200  0.5587201  0.5000000    0.00000       Uiso       1.00
       C53          C  0.0885000  0.5124001  0.5000000    0.00000       Uiso       1.00
       C54          C  0.0458300  0.4909700  0.5000000    0.00000       Uiso       1.00
       C55          C  0.2955300  0.6287600  0.5000000    0.00000       Uiso       1.00
       C56          C  0.2211300  0.5925701  0.5000000    0.00000       Uiso       1.00
       C57          C  0.2572300  0.5915900  0.5000000    0.00000       Uiso       1.00
       H25          H  0.2538500  0.5616400  0.5000000    0.00000       Uiso       1.00
       H26          H  0.1045700  0.4953800  0.5000000    0.00000       Uiso       1.00
       H27          H  0.0316200  0.4582401  0.5000000    0.00000       Uiso       1.00
       O10          O  0.6235000  0.1822200  0.5000000    0.00000       Uiso       1.00
       C58          C  0.5761000  0.0885000  0.5000000    0.00000       Uiso       1.00
       C59          C  0.5548601  0.0458300  0.5000000    0.00000       Uiso       1.00
       C60          C  0.6667700  0.2955300  0.5000000    0.00000       Uiso       1.00
       C61          C  0.6285600  0.2211300  0.5000000    0.00000       Uiso       1.00
       C62          C  0.6656400  0.2572300  0.5000000    0.00000       Uiso       1.00
       H28          H  0.6922100  0.2538500  0.5000000    0.00000       Uiso       1.00
       H29          H  0.6091900  0.1045700  0.5000000    0.00000       Uiso       1.00
       H30          H  0.5733800  0.0316200  0.5000000    0.00000       Uiso       1.00
       O11          O  0.5587200  0.3765000  0.5000000    0.00000       Uiso       1.00
       C63          C  0.5124000  0.4239000  0.5000000    0.00000       Uiso       1.00
       C64          C  0.4909700  0.4451400  0.5000000    0.00000       Uiso       1.00
       C65          C  0.6287600  0.3332300  0.5000000    0.00000       Uiso       1.00
       C66          C  0.5925700  0.3714400  0.5000000    0.00000       Uiso       1.00
       C67          C  0.5915900  0.3343600  0.5000000    0.00000       Uiso       1.00
       H31          H  0.5616400  0.3077900  0.5000000    0.00000       Uiso       1.00
       H32          H  0.4953800  0.3908100  0.5000000    0.00000       Uiso       1.00
       H33          H  0.4582401  0.4266200  0.5000000    0.00000       Uiso       1.00
       O12          O  0.8177801  0.4412800  0.5000000    0.00000       Uiso       1.00
       C68          C  0.9115000  0.4876000  0.5000000    0.00000       Uiso       1.00
       C69          C  0.9541700  0.5090300  0.5000000    0.00000       Uiso       1.00
       C70          C  0.7044700  0.3712400  0.5000000    0.00000       Uiso       1.00
       C71          C  0.7788700  0.4074300  0.5000000    0.00000       Uiso       1.00
       C72          C  0.7427700  0.4084100  0.5000000    0.00000       Uiso       1.00
       H34          H  0.7461500  0.4383600  0.5000000    0.00000       Uiso       1.00
       H35          H  0.8954301  0.5046201  0.5000000    0.00000       Uiso       1.00
       H36          H  0.9683800  0.5417600  0.5000000    0.00000       Uiso       1.00
