data_COF-11A
_audit_creation_date              0000-00-00
_audit_creation_method            'LanYouShi'
_symmetry_space_group_name_H-M    'P1'
_cell_length_a                    21.4895992
_cell_length_b                    21.4895992
_cell_length_c                    4.1571999
_cell_angle_alpha                 90.0000000
_cell_angle_beta                  90.0000000
_cell_angle_gamma                 120.0000000
loop_
_atom_site_label
_atom_site_type_symbol
_atom_site_fract_x
_atom_site_fract_y
_atom_site_fract_z
_atom_site_U_iso_or_equiv
_atom_site_adp_type
_atom_site_occupancy
        C1          C  0.5684516  0.0006218  0.4999976    0.00000       Uiso       1.00
        C2          C  0.9993793  0.5678296  0.4999976    0.00000       Uiso       1.00
        C3          C  0.4321715  0.4315495  0.4999976    0.00000       Uiso       1.00
        C4          C  0.4315495  0.9993793  0.4999976    0.00000       Uiso       1.00
        C5          C  0.0006218  0.4321715  0.4999976    0.00000       Uiso       1.00
        C6          C  0.5678296  0.5684516  0.4999976    0.00000       Uiso       1.00
        C7          C  0.5642887  0.0641967  0.4999976    0.00000       Uiso       1.00
        C8          C  0.9358044  0.5000918  0.4999976    0.00000       Uiso       1.00
        C9          C  0.4999093  0.4357124  0.4999976    0.00000       Uiso       1.00
       C10          C  0.4357124  0.9358044  0.4999976    0.00000       Uiso       1.00
       C11          C  0.0641967  0.4999093  0.4999976    0.00000       Uiso       1.00
       C12          C  0.5000918  0.5642887  0.4999976    0.00000       Uiso       1.00
        O1          O  0.6205481  0.1320481  0.4999976    0.00000       Uiso       1.00
        O2          O  0.8679530  0.4884999  0.4999976    0.00000       Uiso       1.00
        O3          O  0.5115013  0.3794530  0.4999976    0.00000       Uiso       1.00
        O4          O  0.3794530  0.8679531  0.4999976    0.00000       Uiso       1.00
        O5          O  0.1320481  0.5115013  0.4999976    0.00000       Uiso       1.00
        O6          O  0.4884999  0.6205481  0.4999976    0.00000       Uiso       1.00
       C13          C  0.0639924  0.5652885  0.4999976    0.00000       Uiso       1.00
       C14          C  0.4347126  0.4987051  0.4999976    0.00000       Uiso       1.00
       C15          C  0.5012959  0.9360087  0.4999976    0.00000       Uiso       1.00
       C16          C  0.9360088  0.4347126  0.4999976    0.00000       Uiso       1.00
       C17          C  0.5652885  0.5012959  0.4999976    0.00000       Uiso       1.00
       C18          C  0.4987052  0.0639924  0.4999976    0.00000       Uiso       1.00
        O7          O  0.1323201  0.6207322  0.4999976    0.00000       Uiso       1.00
        O8          O  0.3792689  0.5115892  0.4999976    0.00000       Uiso       1.00
        O9          O  0.4884119  0.8676810  0.4999976    0.00000       Uiso       1.00
       O10          O  0.8676810  0.3792689  0.4999976    0.00000       Uiso       1.00
       O11          O  0.6207322  0.4884119  0.4999976    0.00000       Uiso       1.00
       O12          O  0.5115892  0.1323201  0.4999976    0.00000       Uiso       1.00
       C19          C  0.6285943  0.2570951  0.4999976    0.00000       Uiso       1.00
       C20          C  0.7429060  0.3714991  0.4999976    0.00000       Uiso       1.00
       C21          C  0.6285020  0.3714068  0.4999976    0.00000       Uiso       1.00
       C22          C  0.3714068  0.7429060  0.4999976    0.00000       Uiso       1.00
       C23          C  0.2570951  0.6285020  0.4999976    0.00000       Uiso       1.00
       C24          C  0.3714991  0.6285943  0.4999976    0.00000       Uiso       1.00
        B1          B  0.5885976  0.1770584  0.4999976    0.00000       Uiso       1.00
        B2          B  0.8229427  0.4115390  0.4999976    0.00000       Uiso       1.00
        B3          B  0.5884620  0.4114035  0.4999976    0.00000       Uiso       1.00
        B4          B  0.4114035  0.8229427  0.4999976    0.00000       Uiso       1.00
        B5          B  0.1770584  0.5884620  0.4999976    0.00000       Uiso       1.00
        B6          B  0.4115391  0.5885976  0.4999976    0.00000       Uiso       1.00
       C25          C  0.2956120  0.5911444  0.4999976    0.00000       Uiso       1.00
       C26          C  0.4088567  0.7044689  0.4999976    0.00000       Uiso       1.00
       C27          C  0.2955322  0.7043891  0.4999976    0.00000       Uiso       1.00
       C28          C  0.7043891  0.4088567  0.4999976    0.00000       Uiso       1.00
       C29          C  0.5911444  0.2955322  0.4999976    0.00000       Uiso       1.00
       C30          C  0.7044689  0.2956120  0.4999976    0.00000       Uiso       1.00
        H1          H  0.4640765  0.7320836  0.4999976    0.00000       Uiso       1.00
        H2          H  0.2679175  0.7319942  0.4999976    0.00000       Uiso       1.00
        H3          H  0.2680070  0.5359247  0.4999976    0.00000       Uiso       1.00
        H4          H  0.5359246  0.2679175  0.4999976    0.00000       Uiso       1.00
        H5          H  0.7320836  0.2680070  0.4999976    0.00000       Uiso       1.00
        H6          H  0.7319941  0.4640765  0.4999976    0.00000       Uiso       1.00
        H7          H  0.6313767  0.6700084  0.2894589    0.00000       Uiso       1.00
        H8          H  0.3299927  0.9613696  0.2894589    0.00000       Uiso       1.00
        H9          H  0.0386315  0.3686244  0.2894589    0.00000       Uiso       1.00
       H10          H  0.3686244  0.3299927  0.2894589    0.00000       Uiso       1.00
       H11          H  0.6700084  0.0386315  0.2894589    0.00000       Uiso       1.00
       H12          H  0.9613696  0.6313767  0.2894589    0.00000       Uiso       1.00
       H13          H  0.3686244  0.3299927  0.7105364    0.00000       Uiso       1.00
       H14          H  0.6700084  0.0386315  0.7105364    0.00000       Uiso       1.00
       H15          H  0.9613696  0.6313767  0.7105364    0.00000       Uiso       1.00
       H16          H  0.6313767  0.6700084  0.7105364    0.00000       Uiso       1.00
       H17          H  0.3299927  0.9613696  0.7105364    0.00000       Uiso       1.00
       H18          H  0.0386315  0.3686244  0.7105364    0.00000       Uiso       1.00
       H19          H  0.7113355  0.6151742  0.2888934    0.00000       Uiso       1.00
       H20          H  0.3848269  0.0961612  0.2888934    0.00000       Uiso       1.00
       H21          H  0.9038399  0.2886656  0.2888934    0.00000       Uiso       1.00
       H22          H  0.2886656  0.3848269  0.2888934    0.00000       Uiso       1.00
       H23          H  0.6151742  0.9038399  0.2888934    0.00000       Uiso       1.00
       H24          H  0.0961612  0.7113355  0.2888934    0.00000       Uiso       1.00
       H25          H  0.2886656  0.3848269  0.7111018    0.00000       Uiso       1.00
       H26          H  0.6151742  0.9038399  0.7111018    0.00000       Uiso       1.00
       H27          H  0.0961612  0.7113355  0.7111018    0.00000       Uiso       1.00
       H28          H  0.7113355  0.6151742  0.7111018    0.00000       Uiso       1.00
       H29          H  0.3848269  0.0961612  0.7111018    0.00000       Uiso       1.00
       H30          H  0.9038399  0.2886656  0.7111018    0.00000       Uiso       1.00
       H31          H  0.7691113  0.7512110  0.7123491    0.00000       Uiso       1.00
       H32          H  0.2487901  0.0179002  0.7123491    0.00000       Uiso       1.00
       H33          H  0.9821009  0.2308898  0.7123491    0.00000       Uiso       1.00
       H34          H  0.2308898  0.2487901  0.7123491    0.00000       Uiso       1.00
       H35          H  0.7512110  0.9821010  0.7123491    0.00000       Uiso       1.00
       H36          H  0.0179002  0.7691113  0.7123491    0.00000       Uiso       1.00
       H37          H  0.2308898  0.2487901  0.2876462    0.00000       Uiso       1.00
       H38          H  0.7512110  0.9821010  0.2876462    0.00000       Uiso       1.00
       H39          H  0.0179002  0.7691113  0.2876462    0.00000       Uiso       1.00
       H40          H  0.7691113  0.7512110  0.2876462    0.00000       Uiso       1.00
       H41          H  0.2487901  0.0179002  0.2876462    0.00000       Uiso       1.00
       H42          H  0.9821009  0.2308898  0.2876462    0.00000       Uiso       1.00
       C31          C  0.6340925  0.6409898  0.4999976    0.00000       Uiso       1.00
       C32          C  0.3590112  0.9931039  0.4999976    0.00000       Uiso       1.00
       C33          C  0.0068972  0.3659086  0.4999976    0.00000       Uiso       1.00
       C34          C  0.3659086  0.3590112  0.4999976    0.00000       Uiso       1.00
       C35          C  0.6409898  0.0068972  0.4999976    0.00000       Uiso       1.00
       C36          C  0.9931039  0.6340926  0.4999976    0.00000       Uiso       1.00
       C37          C  0.7077138  0.6438010  0.4999976    0.00000       Uiso       1.00
       C38          C  0.3562001  0.0639126  0.4999976    0.00000       Uiso       1.00
       C39          C  0.9360886  0.2922873  0.4999976    0.00000       Uiso       1.00
       C40          C  0.2922873  0.3562001  0.4999976    0.00000       Uiso       1.00
       C41          C  0.6438010  0.9360886  0.4999976    0.00000       Uiso       1.00
       C42          C  0.0639126  0.7077138  0.4999976    0.00000       Uiso       1.00
       C43          C  0.7709615  0.7223666  0.4999976    0.00000       Uiso       1.00
       C44          C  0.2776345  0.0485948  0.4999976    0.00000       Uiso       1.00
       C45          C  0.9514063  0.2290396  0.4999976    0.00000       Uiso       1.00
       C46          C  0.2290396  0.2776345  0.4999976    0.00000       Uiso       1.00
       C47          C  0.7223666  0.9514063  0.4999976    0.00000       Uiso       1.00
       C48          C  0.0485948  0.7709615  0.4999976    0.00000       Uiso       1.00
       H43          H  0.8222242  0.7231454  0.4999976    0.00000       Uiso       1.00
       H44          H  0.2768557  0.0990787  0.4999976    0.00000       Uiso       1.00
       H45          H  0.9009224  0.1777769  0.4999976    0.00000       Uiso       1.00
       H46          H  0.1777769  0.2768557  0.4999976    0.00000       Uiso       1.00
       H47          H  0.7231454  0.9009224  0.4999976    0.00000       Uiso       1.00
       H48          H  0.0990787  0.8222242  0.4999976    0.00000       Uiso       1.00
