data_COF-14A
_audit_creation_date              0000-00-00
_audit_creation_method            'LanYouShi'
_symmetry_space_group_name_H-M    'P1'
_cell_length_a                    21.7098999
_cell_length_b                    4.1111999
_cell_length_c                    21.6910992
_cell_angle_alpha                 90.0000000
_cell_angle_beta                  120.1725006
_cell_angle_gamma                 90.0000000
loop_
_atom_site_label
_atom_site_type_symbol
_atom_site_fract_x
_atom_site_fract_y
_atom_site_fract_z
_atom_site_U_iso_or_equiv
_atom_site_adp_type
_atom_site_occupancy
        C1          C  0.0042042  0.5000005  0.5729535    0.00000       Uiso       1.00
        C2          C  0.5692775  0.5000005  0.9979062    0.00000       Uiso       1.00
        C3          C  0.4290556  0.5000005  0.4328330    0.00000       Uiso       1.00
        C4          C  0.9969116  0.5000005  0.4292659    0.00000       Uiso       1.00
        C5          C  0.4327174  0.5000005  0.0046369    0.00000       Uiso       1.00
        C6          C  0.5729958  0.5000005  0.5695598    0.00000       Uiso       1.00
        C7          C  0.0667408  0.5000005  0.5676268    0.00000       Uiso       1.00
        C8          C  0.5012824  0.5000005  0.9356842    0.00000       Uiso       1.00
        C9          C  0.4351895  0.5000005  0.5008725    0.00000       Uiso       1.00
       C10          C  0.9350060  0.5000005  0.4351483    0.00000       Uiso       1.00
       C11          C  0.5007180  0.5000005  0.0668672    0.00000       Uiso       1.00
       C12          C  0.5668556  0.5000005  0.5015242    0.00000       Uiso       1.00
        O1          O  0.1355772  0.5000005  0.6207872    0.00000       Uiso       1.00
        O2          O  0.4870846  0.5000005  0.8674195    0.00000       Uiso       1.00
        O3          O  0.3812402  0.5000005  0.5150638    0.00000       Uiso       1.00
        O4          O  0.8664704  0.5000005  0.3814297    0.00000       Uiso       1.00
        O5          O  0.5149672  0.5000005  0.1351586    0.00000       Uiso       1.00
        O6          O  0.6207991  0.5000005  0.4873297    0.00000       Uiso       1.00
       C13          C  0.5683932  0.5000005  0.0663555    0.00000       Uiso       1.00
       C14          C  0.4983559  0.5000005  0.4337584    0.00000       Uiso       1.00
       C15          C  0.9362276  0.5000005  0.5035503    0.00000       Uiso       1.00
       C16          C  0.4336100  0.5000005  0.9361865    0.00000       Uiso       1.00
       C17          C  0.5036943  0.5000005  0.5686271    0.00000       Uiso       1.00
       C18          C  0.0655813  0.5000005  0.4988159    0.00000       Uiso       1.00
        O7          O  0.6259041  0.5000005  0.1377474    0.00000       Uiso       1.00
        O8          O  0.5119533  0.5000005  0.3762380    0.00000       Uiso       1.00
        O9          O  0.8655944  0.5000005  0.4908432    0.00000       Uiso       1.00
       O10          O  0.3761332  0.5000005  0.8647861    0.00000       Uiso       1.00
       O11          O  0.4901019  0.5000005  0.6261336    0.00000       Uiso       1.00
       O12          O  0.1364809  0.5000005  0.5117373    0.00000       Uiso       1.00
       C19          C  0.2589167  0.5000005  0.6288447    0.00000       Uiso       1.00
       C20          C  0.3717694  0.5000005  0.7431977    0.00000       Uiso       1.00
       C21          C  0.3729509  0.5000005  0.6304204    0.00000       Uiso       1.00
       C22          C  0.7432683  0.5000005  0.3737129    0.00000       Uiso       1.00
       C23          C  0.6303709  0.5000005  0.2593436    0.00000       Uiso       1.00
       C24          C  0.6292059  0.5000005  0.3721074    0.00000       Uiso       1.00
        B1          B  0.1795191  0.5000005  0.5883722    0.00000       Uiso       1.00
        B2          B  0.4105507  0.5000005  0.8226655    0.00000       Uiso       1.00
        B3          B  0.4134287  0.5000005  0.5916664    0.00000       Uiso       1.00
        B4          B  0.8226784  0.5000005  0.4141266    0.00000       Uiso       1.00
        B5          B  0.5915043  0.5000005  0.1798714    0.00000       Uiso       1.00
        B6          B  0.5886253  0.5000005  0.4107536    0.00000       Uiso       1.00
       C25          C  0.5927504  0.5000005  0.2967962    0.00000       Uiso       1.00
       C26          C  0.7044873  0.5000005  0.4100337    0.00000       Uiso       1.00
       C27          C  0.7056078  0.5000005  0.2983872    0.00000       Uiso       1.00
       C28          C  0.4094014  0.5000005  0.7057418    0.00000       Uiso       1.00
       C29          C  0.2976886  0.5000005  0.5925462    0.00000       Uiso       1.00
       C30          C  0.2965436  0.5000005  0.7041472    0.00000       Uiso       1.00
        H1          H  0.7314469  0.5000005  0.4648966    0.00000       Uiso       1.00
        H2          H  0.7333026  0.5000005  0.2714159    0.00000       Uiso       1.00
        H3          H  0.5379708  0.5000005  0.2688536    0.00000       Uiso       1.00
        H4          H  0.2706381  0.5000005  0.5377349    0.00000       Uiso       1.00
        H5          H  0.2687764  0.5000005  0.7310155    0.00000       Uiso       1.00
        H6          H  0.4641704  0.5000005  0.7336755    0.00000       Uiso       1.00
        H7          H  0.1037877  0.7133849  0.7148308    0.00000       Uiso       1.00
        H8          H  0.9691089  0.7124969  0.6382649    0.00000       Uiso       1.00
        H9          H  0.6191214  0.2878239  0.7116636    0.00000       Uiso       1.00
       H10          H  0.6741372  0.2874708  0.6321253    0.00000       Uiso       1.00
       H11          H  0.3829446  0.2878484  0.2907363    0.00000       Uiso       1.00
       H12          H  0.3279692  0.2873960  0.3702967    0.00000       Uiso       1.00
       H13          H  0.0925560  0.2878664  0.3831089    0.00000       Uiso       1.00
       H14          H  0.9578225  0.2873861  0.3280897    0.00000       Uiso       1.00
       H15          H  0.2907620  0.2878157  0.9080012    0.00000       Uiso       1.00
       H16          H  0.3702381  0.2873937  0.0429661    0.00000       Uiso       1.00
       H17          H  0.7112675  0.2878272  0.0944929    0.00000       Uiso       1.00
       H18          H  0.6316963  0.2874105  0.9595118    0.00000       Uiso       1.00
       H19          H  0.1037877  0.2866161  0.7148308    0.00000       Uiso       1.00
       H20          H  0.9691089  0.2875041  0.6382649    0.00000       Uiso       1.00
       H21          H  0.6191214  0.7121770  0.7116636    0.00000       Uiso       1.00
       H22          H  0.6741372  0.7125303  0.6321253    0.00000       Uiso       1.00
       H23          H  0.3829446  0.7121526  0.2907363    0.00000       Uiso       1.00
       H24          H  0.3279692  0.7126049  0.3702967    0.00000       Uiso       1.00
       H25          H  0.0925560  0.7121345  0.3831089    0.00000       Uiso       1.00
       H26          H  0.9578225  0.7126149  0.3280897    0.00000       Uiso       1.00
       H27          H  0.2907620  0.7121853  0.9080012    0.00000       Uiso       1.00
       H28          H  0.3702381  0.7126073  0.0429661    0.00000       Uiso       1.00
       H29          H  0.7112675  0.7121738  0.0944929    0.00000       Uiso       1.00
       H30          H  0.6316963  0.7125905  0.9595118    0.00000       Uiso       1.00
       C31          C  0.0722573  0.5000005  0.7113300    0.00000       Uiso       1.00
       C32          C  0.0002355  0.5000005  0.6398323    0.00000       Uiso       1.00
       H31          H  0.0636416  0.5000005  0.7567733    0.00000       Uiso       1.00
       C33          C  0.6471086  0.5000005  0.7075092    0.00000       Uiso       1.00
       C34          C  0.6452989  0.5000005  0.6349338    0.00000       Uiso       1.00
       H32          H  0.7017505  0.5000005  0.7522008    0.00000       Uiso       1.00
       C35          C  0.3549390  0.5000005  0.2948768    0.00000       Uiso       1.00
       C36          C  0.3567560  0.5000005  0.3674533    0.00000       Uiso       1.00
       H33          H  0.3003104  0.5000005  0.2501701    0.00000       Uiso       1.00
       C37          C  0.0602488  0.5000005  0.3550764    0.00000       Uiso       1.00
       C38          C  0.9895769  0.5000005  0.3569155    0.00000       Uiso       1.00
       H34          H  0.0500121  0.5000005  0.3004036    0.00000       Uiso       1.00
       C39          C  0.2948736  0.5000005  0.9401743    0.00000       Uiso       1.00
       C40          C  0.3674014  0.5000005  0.0113000    0.00000       Uiso       1.00
       H35          H  0.2502250  0.5000005  0.9499422    0.00000       Uiso       1.00
       C41          C  0.7071089  0.5000005  0.0623015    0.00000       Uiso       1.00
       C42          C  0.6345643  0.5000005  0.9912001    0.00000       Uiso       1.00
       H36          H  0.7517409  0.5000005  0.0525082    0.00000       Uiso       1.00
