data_crystal
 
_cell_length_a    21.70990
_cell_length_b    4.11120
_cell_length_c    21.69110
_cell_angle_alpha 90.00000
_cell_angle_beta  120.17250
_cell_angle_gamma 90.00000
 
_symmetry_space_group_name_Hall 'P 1'
_symmetry_space_group_name_H-M  'P 1'
 
loop_
_symmetry_equiv_pos_as_xyz
 'x,y,z' 
 
loop_
_atom_site_label
_atom_site_type_symbol
_atom_site_fract_x
_atom_site_fract_y
_atom_site_fract_z
_atom_site_charge
C          C       0.00420   0.50000   0.57295   0.0000000000
C          C       0.56928   0.50000   0.99791   0.0000000000
C          C       0.42906   0.50000   0.43283   0.0000000000
C          C       0.99691   0.50000   0.42927   0.0000000000
C          C       0.43272   0.50000   0.00464   0.0000000000
C          C       0.57300   0.50000   0.56956   0.0000000000
C          C       0.06674   0.50000   0.56763   0.0000000000
C          C       0.50128   0.50000   0.93568   0.0000000000
C          C       0.43519   0.50000   0.50087   0.0000000000
C          C       0.93501   0.50000   0.43515   0.0000000000
C          C       0.50072   0.50000   0.06687   0.0000000000
C          C       0.56686   0.50000   0.50152   0.0000000000
O          O       0.13558   0.50000   0.62079   0.0000000000
O          O       0.48708   0.50000   0.86742   0.0000000000
O          O       0.38124   0.50000   0.51506   0.0000000000
O          O       0.86647   0.50000   0.38143   0.0000000000
O          O       0.51497   0.50000   0.13516   0.0000000000
O          O       0.62080   0.50000   0.48733   0.0000000000
C          C       0.56839   0.50000   0.06636   0.0000000000
C          C       0.49836   0.50000   0.43376   0.0000000000
C          C       0.93623   0.50000   0.50355   0.0000000000
C          C       0.43361   0.50000   0.93619   0.0000000000
C          C       0.50369   0.50000   0.56863   0.0000000000
C          C       0.06558   0.50000   0.49882   0.0000000000
O          O       0.62590   0.50000   0.13775   0.0000000000
O          O       0.51195   0.50000   0.37624   0.0000000000
O          O       0.86559   0.50000   0.49084   0.0000000000
O          O       0.37613   0.50000   0.86479   0.0000000000
O          O       0.49010   0.50000   0.62613   0.0000000000
O          O       0.13648   0.50000   0.51174   0.0000000000
C          C       0.25892   0.50000   0.62884   0.0000000000
C          C       0.37177   0.50000   0.74320   0.0000000000
C          C       0.37295   0.50000   0.63042   0.0000000000
C          C       0.74327   0.50000   0.37371   0.0000000000
C          C       0.63037   0.50000   0.25934   0.0000000000
C          C       0.62921   0.50000   0.37211   0.0000000000
B          B       0.17952   0.50000   0.58837   0.0000000000
B          B       0.41055   0.50000   0.82267   0.0000000000
B          B       0.41343   0.50000   0.59167   0.0000000000
B          B       0.82268   0.50000   0.41413   0.0000000000
B          B       0.59150   0.50000   0.17987   0.0000000000
B          B       0.58863   0.50000   0.41075   0.0000000000
C          C       0.59275   0.50000   0.29680   0.0000000000
C          C       0.70449   0.50000   0.41003   0.0000000000
C          C       0.70561   0.50000   0.29839   0.0000000000
C          C       0.40940   0.50000   0.70574   0.0000000000
C          C       0.29769   0.50000   0.59255   0.0000000000
C          C       0.29654   0.50000   0.70415   0.0000000000
H          H       0.73145   0.50000   0.46490   0.0000000000
H          H       0.73330   0.50000   0.27142   0.0000000000
H          H       0.53797   0.50000   0.26885   0.0000000000
H          H       0.27064   0.50000   0.53773   0.0000000000
H          H       0.26878   0.50000   0.73102   0.0000000000
H          H       0.46417   0.50000   0.73368   0.0000000000
H          H       0.10379   0.71338   0.71483   0.0000000000
H          H       0.96911   0.71250   0.63826   0.0000000000
H          H       0.61912   0.28782   0.71166   0.0000000000
H          H       0.67414   0.28747   0.63213   0.0000000000
H          H       0.38294   0.28785   0.29074   0.0000000000
H          H       0.32797   0.28740   0.37030   0.0000000000
H          H       0.09256   0.28787   0.38311   0.0000000000
H          H       0.95782   0.28739   0.32809   0.0000000000
H          H       0.29076   0.28782   0.90800   0.0000000000
H          H       0.37024   0.28739   0.04297   0.0000000000
H          H       0.71127   0.28783   0.09449   0.0000000000
H          H       0.63170   0.28741   0.95951   0.0000000000
H          H       0.10379   0.28662   0.71483   0.0000000000
H          H       0.96911   0.28750   0.63826   0.0000000000
H          H       0.61912   0.71218   0.71166   0.0000000000
H          H       0.67414   0.71253   0.63213   0.0000000000
H          H       0.38294   0.71215   0.29074   0.0000000000
H          H       0.32797   0.71260   0.37030   0.0000000000
H          H       0.09256   0.71213   0.38311   0.0000000000
H          H       0.95782   0.71261   0.32809   0.0000000000
H          H       0.29076   0.71219   0.90800   0.0000000000
H          H       0.37024   0.71261   0.04297   0.0000000000
H          H       0.71127   0.71217   0.09449   0.0000000000
H          H       0.63170   0.71259   0.95951   0.0000000000
C          C       0.07226   0.50000   0.71133   0.0000000000
C          C       0.00024   0.50000   0.63983   0.0000000000
H          H       0.06364   0.50000   0.75677   0.0000000000
C          C       0.64711   0.50000   0.70751   0.0000000000
C          C       0.64530   0.50000   0.63493   0.0000000000
H          H       0.70175   0.50000   0.75220   0.0000000000
C          C       0.35494   0.50000   0.29488   0.0000000000
C          C       0.35676   0.50000   0.36745   0.0000000000
H          H       0.30031   0.50000   0.25017   0.0000000000
C          C       0.06025   0.50000   0.35508   0.0000000000
C          C       0.98958   0.50000   0.35692   0.0000000000
H          H       0.05001   0.50000   0.30040   0.0000000000
C          C       0.29487   0.50000   0.94017   0.0000000000
C          C       0.36740   0.50000   0.01130   0.0000000000
H          H       0.25022   0.50000   0.94994   0.0000000000
C          C       0.70711   0.50000   0.06230   0.0000000000
C          C       0.63456   0.50000   0.99120   0.0000000000
H          H       0.75174   0.50000   0.05251   0.0000000000
