data_COF-16A
_audit_creation_date              0000-00-00
_audit_creation_method            'LanYouShi'
_symmetry_space_group_name_H-M    'P1'
_cell_length_a                    21.4918003
_cell_length_b                    4.0186000
_cell_length_c                    21.4899006
_cell_angle_alpha                 90.0000000
_cell_angle_beta                  119.9915009
_cell_angle_gamma                 90.0000000
loop_
_atom_site_label
_atom_site_type_symbol
_atom_site_fract_x
_atom_site_fract_y
_atom_site_fract_z
_atom_site_U_iso_or_equiv
_atom_site_adp_type
_atom_site_occupancy
        C1          C  0.0000858  0.5000004  0.5675836    0.00000       Uiso       1.00
        C2          C  0.5676054  0.5000004  0.9998102    0.00000       Uiso       1.00
        C3          C  0.4324025  0.5000004  0.4323350    0.00000       Uiso       1.00
        C4          C  0.0001212  0.5000004  0.4323229    0.00000       Uiso       1.00
        C5          C  0.5676390  0.5000004  0.5676097    0.00000       Uiso       1.00
        C6          C  0.0643545  0.5000004  0.5647651    0.00000       Uiso       1.00
        C7          C  0.5004735  0.5000004  0.9355954    0.00000       Uiso       1.00
        C8          C  0.4352095  0.5000004  0.4994212    0.00000       Uiso       1.00
        C9          C  0.9358001  0.5000004  0.4351233    0.00000       Uiso       1.00
       C10          C  0.4996198  0.5000004  0.0642714    0.00000       Uiso       1.00
       C11          C  0.5648869  0.5000004  0.5005049    0.00000       Uiso       1.00
        O1          O  0.1322732  0.5000004  0.6207610    0.00000       Uiso       1.00
        O2          O  0.4885474  0.5000004  0.8676670    0.00000       Uiso       1.00
        O3          O  0.3792107  0.5000004  0.5113499    0.00000       Uiso       1.00
        O4          O  0.8678530  0.5000004  0.3791496    0.00000       Uiso       1.00
        O5          O  0.5115458  0.5000004  0.1322004    0.00000       Uiso       1.00
        O6          O  0.6208617  0.5000004  0.4885200    0.00000       Uiso       1.00
       C12          C  0.5649604  0.5000004  0.0642150    0.00000       Uiso       1.00
       C13          C  0.4995141  0.5000004  0.4351166    0.00000       Uiso       1.00
       C14          C  0.9357840  0.5000004  0.5005072    0.00000       Uiso       1.00
       C15          C  0.4351339  0.5000004  0.9356517    0.00000       Uiso       1.00
       C16          C  0.5005457  0.5000004  0.5647748    0.00000       Uiso       1.00
       C17          C  0.0643689  0.5000004  0.4994161    0.00000       Uiso       1.00
        O7          O  0.6209235  0.5000004  0.1321718    0.00000       Uiso       1.00
        O8          O  0.5115115  0.5000004  0.3791474    0.00000       Uiso       1.00
        O9          O  0.8678269  0.5000004  0.4885174    0.00000       Uiso       1.00
       O10          O  0.3791715  0.5000004  0.8676953    0.00000       Uiso       1.00
       O11          O  0.4885967  0.5000004  0.6207646    0.00000       Uiso       1.00
       O12          O  0.1322944  0.5000004  0.5113517    0.00000       Uiso       1.00
       C18          C  0.2570792  0.5000004  0.6284556    0.00000       Uiso       1.00
       C19          C  0.3714675  0.5000004  0.7428638    0.00000       Uiso       1.00
       C20          C  0.3714852  0.5000004  0.6284552    0.00000       Uiso       1.00
       C21          C  0.7430202  0.5000004  0.3714144    0.00000       Uiso       1.00
       C22          C  0.6286281  0.5000004  0.2570047    0.00000       Uiso       1.00
       C23          C  0.6286090  0.5000004  0.3714154    0.00000       Uiso       1.00
        B1          B  0.1770235  0.5000004  0.5884281    0.00000       Uiso       1.00
        B2          B  0.4114861  0.5000004  0.8229271    0.00000       Uiso       1.00
        B3          B  0.4115252  0.5000004  0.5884261    0.00000       Uiso       1.00
        B4          B  0.8230780  0.5000004  0.4114482    0.00000       Uiso       1.00
        B5          B  0.5886084  0.5000004  0.1769407    0.00000       Uiso       1.00
        B6          B  0.5885735  0.5000004  0.4114512    0.00000       Uiso       1.00
       C24          C  0.5912367  0.5000004  0.2955176    0.00000       Uiso       1.00
       C25          C  0.7044995  0.5000004  0.4087970    0.00000       Uiso       1.00
       C26          C  0.7045181  0.5000004  0.2955175    0.00000       Uiso       1.00
       C27          C  0.4088616  0.5000004  0.7043533    0.00000       Uiso       1.00
       C28          C  0.2955937  0.5000004  0.5910659    0.00000       Uiso       1.00
       C29          C  0.2955771  0.5000004  0.7043528    0.00000       Uiso       1.00
        H1          H  0.7321128  0.5000004  0.4640408    0.00000       Uiso       1.00
        H2          H  0.7321436  0.5000004  0.2678944    0.00000       Uiso       1.00
        H3          H  0.5359939  0.5000004  0.2678934    0.00000       Uiso       1.00
        H4          H  0.2679762  0.5000004  0.5358135    0.00000       Uiso       1.00
        H5          H  0.2679479  0.5000004  0.7319766    0.00000       Uiso       1.00
        H6          H  0.4641091  0.5000004  0.7319788    0.00000       Uiso       1.00
        H7          H  0.3615466  0.2822388  0.0298411    0.00000       Uiso       1.00
        H8          H  0.3615466  0.7177621  0.0298411    0.00000       Uiso       1.00
        H9          H  0.0298565  0.7177514  0.3613380    0.00000       Uiso       1.00
       H10          H  0.0298565  0.2822494  0.3613380    0.00000       Uiso       1.00
       H11          H  0.3317156  0.2822460  0.3613166    0.00000       Uiso       1.00
       H12          H  0.3317156  0.7177548  0.3613166    0.00000       Uiso       1.00
       H13          H  0.0297508  0.2822383  0.6682805    0.00000       Uiso       1.00
       H14          H  0.0297508  0.7177625  0.6682805    0.00000       Uiso       1.00
       H15          H  0.6386048  0.7177519  0.6683179    0.00000       Uiso       1.00
       H16          H  0.6386048  0.2822489  0.6683179    0.00000       Uiso       1.00
       H17          H  0.6385323  0.2822452  0.9700043    0.00000       Uiso       1.00
       H18          H  0.6385323  0.7177556  0.9700043    0.00000       Uiso       1.00
       C30          C  0.0011877  0.5000004  0.6371632    0.00000       Uiso       1.00
       C31          C  0.6360212  0.5000004  0.9985993    0.00000       Uiso       1.00
       C32          C  0.3628361  0.5000004  0.3638682    0.00000       Uiso       1.00
       H19          H  0.3174036  0.5000004  0.9470137    0.00000       Uiso       1.00
       C33          C  0.0012756  0.5000004  0.3638720    0.00000       Uiso       1.00
       H20          H  0.9470735  0.5000004  0.3172962    0.00000       Uiso       1.00
       H21          H  0.3704890  0.5000004  0.3172712    0.00000       Uiso       1.00
       C34          C  0.3640651  0.5000004  0.0012530    0.00000       Uiso       1.00
       H22          H  0.9469672  0.5000004  0.6295525    0.00000       Uiso       1.00
       C35          C  0.6360770  0.5000004  0.6372038    0.00000       Uiso       1.00
       H23          H  0.6826897  0.5000004  0.6295859    0.00000       Uiso       1.00
       H24          H  0.6826876  0.5000004  0.0528327    0.00000       Uiso       1.00
        C5          C  0.4324877  0.5000004  0.0000552    0.00000       Uiso       1.00
