data_crystal
 
_cell_length_a    21.49180
_cell_length_b    4.01860
_cell_length_c    21.48990
_cell_angle_alpha 90.00000
_cell_angle_beta  119.99150
_cell_angle_gamma 90.00000
 
_symmetry_space_group_name_Hall 'P 1'
_symmetry_space_group_name_H-M  'P 1'
 
loop_
_symmetry_equiv_pos_as_xyz
 'x,y,z' 
 
loop_
_atom_site_label
_atom_site_type_symbol
_atom_site_fract_x
_atom_site_fract_y
_atom_site_fract_z
_atom_site_charge
C          C       0.00009   0.50000   0.56758   0.0000000000
C          C       0.56761   0.50000   0.99981   0.0000000000
C          C       0.43240   0.50000   0.43234   0.0000000000
C          C       0.00012   0.50000   0.43232   0.0000000000
C          C       0.56764   0.50000   0.56761   0.0000000000
C          C       0.06435   0.50000   0.56477   0.0000000000
C          C       0.50047   0.50000   0.93560   0.0000000000
C          C       0.43521   0.50000   0.49942   0.0000000000
C          C       0.93580   0.50000   0.43512   0.0000000000
C          C       0.49962   0.50000   0.06427   0.0000000000
C          C       0.56489   0.50000   0.50050   0.0000000000
O          O       0.13227   0.50000   0.62076   0.0000000000
O          O       0.48855   0.50000   0.86767   0.0000000000
O          O       0.37921   0.50000   0.51135   0.0000000000
O          O       0.86785   0.50000   0.37915   0.0000000000
O          O       0.51155   0.50000   0.13220   0.0000000000
O          O       0.62086   0.50000   0.48852   0.0000000000
C          C       0.56496   0.50000   0.06421   0.0000000000
C          C       0.49951   0.50000   0.43512   0.0000000000
C          C       0.93578   0.50000   0.50051   0.0000000000
C          C       0.43513   0.50000   0.93565   0.0000000000
C          C       0.50055   0.50000   0.56477   0.0000000000
C          C       0.06437   0.50000   0.49942   0.0000000000
O          O       0.62092   0.50000   0.13217   0.0000000000
O          O       0.51151   0.50000   0.37915   0.0000000000
O          O       0.86783   0.50000   0.48852   0.0000000000
O          O       0.37917   0.50000   0.86770   0.0000000000
O          O       0.48860   0.50000   0.62076   0.0000000000
O          O       0.13229   0.50000   0.51135   0.0000000000
C          C       0.25708   0.50000   0.62846   0.0000000000
C          C       0.37147   0.50000   0.74286   0.0000000000
C          C       0.37149   0.50000   0.62846   0.0000000000
C          C       0.74302   0.50000   0.37141   0.0000000000
C          C       0.62863   0.50000   0.25700   0.0000000000
C          C       0.62861   0.50000   0.37142   0.0000000000
B          B       0.17702   0.50000   0.58843   0.0000000000
B          B       0.41149   0.50000   0.82293   0.0000000000
B          B       0.41153   0.50000   0.58843   0.0000000000
B          B       0.82308   0.50000   0.41145   0.0000000000
B          B       0.58861   0.50000   0.17694   0.0000000000
B          B       0.58857   0.50000   0.41145   0.0000000000
C          C       0.59124   0.50000   0.29552   0.0000000000
C          C       0.70450   0.50000   0.40880   0.0000000000
C          C       0.70452   0.50000   0.29552   0.0000000000
C          C       0.40886   0.50000   0.70435   0.0000000000
C          C       0.29559   0.50000   0.59107   0.0000000000
C          C       0.29558   0.50000   0.70435   0.0000000000
H          H       0.73211   0.50000   0.46404   0.0000000000
H          H       0.73214   0.50000   0.26789   0.0000000000
H          H       0.53599   0.50000   0.26789   0.0000000000
H          H       0.26798   0.50000   0.53581   0.0000000000
H          H       0.26795   0.50000   0.73198   0.0000000000
H          H       0.46411   0.50000   0.73198   0.0000000000
H          H       0.36155   0.28224   0.02984   0.0000000000
H          H       0.36155   0.71776   0.02984   0.0000000000
H          H       0.02986   0.71775   0.36134   0.0000000000
H          H       0.02986   0.28225   0.36134   0.0000000000
H          H       0.33172   0.28225   0.36132   0.0000000000
H          H       0.33172   0.71775   0.36132   0.0000000000
H          H       0.02975   0.28224   0.66828   0.0000000000
H          H       0.02975   0.71776   0.66828   0.0000000000
H          H       0.63860   0.71775   0.66832   0.0000000000
H          H       0.63860   0.28225   0.66832   0.0000000000
H          H       0.63853   0.28225   0.97000   0.0000000000
H          H       0.63853   0.71776   0.97000   0.0000000000
C          C       0.00119   0.50000   0.63716   0.0000000000
C          C       0.63602   0.50000   0.99860   0.0000000000
C          C       0.36284   0.50000   0.36387   0.0000000000
H          H       0.31740   0.50000   0.94701   0.0000000000
C          C       0.00128   0.50000   0.36387   0.0000000000
H          H       0.94707   0.50000   0.31730   0.0000000000
H          H       0.37049   0.50000   0.31727   0.0000000000
C          C       0.36407   0.50000   0.00125   0.0000000000
H          H       0.94697   0.50000   0.62955   0.0000000000
C          C       0.63608   0.50000   0.63720   0.0000000000
H          H       0.68269   0.50000   0.62959   0.0000000000
H          H       0.68269   0.50000   0.05283   0.0000000000
C          C       0.43249   0.50000   0.00006   0.0000000000
