data_COF-42-gra
_audit_creation_date              0000-00-00
_audit_creation_method            'LanYouShi'
_symmetry_space_group_name_H-M    'P1'
_cell_length_a                    30.4759998
_cell_length_b                    30.4759998
_cell_length_c                    6.5811000
_cell_angle_alpha                 90.0000000
_cell_angle_beta                  90.0000000
_cell_angle_gamma                 120.0000000
loop_
_atom_site_label
_atom_site_type_symbol
_atom_site_fract_x
_atom_site_fract_y
_atom_site_fract_z
_atom_site_U_iso_or_equiv
_atom_site_adp_type
_atom_site_occupancy
        H1          H  0.0283000  0.2900000  0.6140000    0.00000       Uiso       1.00
        H2          H  0.9458000  0.2708000  0.8886000    0.00000       Uiso       1.00
        H3          H  0.6818001  0.0306000  0.6115001    0.00000       Uiso       1.00
        H4          H  0.6118000  0.0496000  0.8875000    0.00000       Uiso       1.00
        H5          H  0.7100000  0.7383001  0.6140000    0.00000       Uiso       1.00
        H6          H  0.7292000  0.6750001  0.8886000    0.00000       Uiso       1.00
        H7          H  0.9694000  0.6512001  0.6115001    0.00000       Uiso       1.00
        H8          H  0.9504000  0.5622000  0.8875000    0.00000       Uiso       1.00
        H9          H  0.2616999  0.9717000  0.6140000    0.00000       Uiso       1.00
       H10          H  0.3250000  0.0542000  0.8886000    0.00000       Uiso       1.00
       H11          H  0.3487999  0.3182000  0.6115001    0.00000       Uiso       1.00
       H12          H  0.4378000  0.3882000  0.8875000    0.00000       Uiso       1.00
       H13          H  0.9717000  0.7100000  0.1140000    0.00000       Uiso       1.00
       H14          H  0.0542000  0.7292001  0.3886000    0.00000       Uiso       1.00
       H15          H  0.3182000  0.9694000  0.1115000    0.00000       Uiso       1.00
       H16          H  0.3882000  0.9504001  0.3875000    0.00000       Uiso       1.00
       H17          H  0.2900000  0.2616999  0.1140000    0.00000       Uiso       1.00
       H18          H  0.2708000  0.3250000  0.3886000    0.00000       Uiso       1.00
       H19          H  0.0305999  0.3487999  0.1115000    0.00000       Uiso       1.00
       H20          H  0.0496000  0.4378000  0.3875000    0.00000       Uiso       1.00
       H21          H  0.7383001  0.0283000  0.1140000    0.00000       Uiso       1.00
       H22          H  0.6750000  0.9458000  0.3886000    0.00000       Uiso       1.00
       H23          H  0.6512001  0.6818000  0.1115000    0.00000       Uiso       1.00
       H24          H  0.5622000  0.6118000  0.3875000    0.00000       Uiso       1.00
       H25          H  0.9717000  0.7100000  0.3860000    0.00000       Uiso       1.00
       H26          H  0.0542000  0.7292001  0.1114000    0.00000       Uiso       1.00
       H27          H  0.3182000  0.9694000  0.3885000    0.00000       Uiso       1.00
       H28          H  0.3882000  0.9504001  0.1125000    0.00000       Uiso       1.00
       H29          H  0.2900000  0.2616999  0.3860000    0.00000       Uiso       1.00
       H30          H  0.2708000  0.3250000  0.1114000    0.00000       Uiso       1.00
       H31          H  0.0305999  0.3487999  0.3885000    0.00000       Uiso       1.00
       H32          H  0.0496000  0.4378000  0.1125000    0.00000       Uiso       1.00
       H33          H  0.7383001  0.0283000  0.3860000    0.00000       Uiso       1.00
       H34          H  0.6750000  0.9458000  0.1114000    0.00000       Uiso       1.00
       H35          H  0.6512001  0.6818000  0.3885000    0.00000       Uiso       1.00
       H36          H  0.5622000  0.6118000  0.1125000    0.00000       Uiso       1.00
       H37          H  0.0283000  0.2900000  0.8860000    0.00000       Uiso       1.00
       H38          H  0.9458000  0.2708000  0.6114000    0.00000       Uiso       1.00
       H39          H  0.6818001  0.0306000  0.8885000    0.00000       Uiso       1.00
       H40          H  0.6118000  0.0496000  0.6125000    0.00000       Uiso       1.00
       H41          H  0.7100000  0.7383001  0.8860000    0.00000       Uiso       1.00
       H42          H  0.7292000  0.6750001  0.6114000    0.00000       Uiso       1.00
       H43          H  0.9694000  0.6512001  0.8885000    0.00000       Uiso       1.00
       H44          H  0.9504000  0.5622000  0.6125000    0.00000       Uiso       1.00
       H45          H  0.2616999  0.9717000  0.8860000    0.00000       Uiso       1.00
       H46          H  0.3250000  0.0542000  0.6114000    0.00000       Uiso       1.00
       H47          H  0.3487999  0.3182000  0.8885000    0.00000       Uiso       1.00
       H48          H  0.4378000  0.3882000  0.6125000    0.00000       Uiso       1.00
       H49          H  0.8644000  0.2433000  0.7500000    0.00000       Uiso       1.00
       H50          H  0.7637000  0.0566000  0.7500000    0.00000       Uiso       1.00
       H51          H  0.9430000  0.1422000  0.7500000    0.00000       Uiso       1.00
       H52          H  0.0067000  0.1188001  0.7500000    0.00000       Uiso       1.00
       H53          H  0.0684000  0.0899000  0.7500000    0.00000       Uiso       1.00
       H54          H  0.6279000  0.2017000  0.7500000    0.00000       Uiso       1.00
       H55          H  0.7473000  0.3318000  0.7500000    0.00000       Uiso       1.00
       H56          H  0.8384000  0.5228000  0.7500000    0.00000       Uiso       1.00
       H57          H  0.0118999  0.2329000  0.7500000    0.00000       Uiso       1.00
       H58          H  0.5949000  0.9919000  0.7500000    0.00000       Uiso       1.00
        C1          C  0.7625000  0.4257000  0.7500000    0.00000       Uiso       1.00
        C2          C  0.7867000  0.5539000  0.7500000    0.00000       Uiso       1.00
        C3          C  0.8214000  0.6102000  0.7500000    0.00000       Uiso       1.00
        C4          C  0.8750000  0.6349000  0.7500000    0.00000       Uiso       1.00
        C5          C  0.9026000  0.6882000  0.7500000    0.00000       Uiso       1.00
        C6          C  0.8786000  0.7178000  0.7500000    0.00000       Uiso       1.00
        C7          C  0.7975000  0.6397001  0.7500000    0.00000       Uiso       1.00
        C8          C  0.8247000  0.6925000  0.7500000    0.00000       Uiso       1.00
        C9          C  0.9127001  0.7746001  0.7500000    0.00000       Uiso       1.00
       C10          C  0.9205000  0.8970000  0.7500000    0.00000       Uiso       1.00
       C11          C  0.0084000  0.2675000  0.7500000    0.00000       Uiso       1.00
       C12          C  0.6750000  0.0470001  0.7500000    0.00000       Uiso       1.00
       C13          C  0.6199000  0.0337000  0.7500000    0.00000       Uiso       1.00
        N1          N  0.7609000  0.4669000  0.7500000    0.00000       Uiso       1.00
        N2          N  0.8014000  0.5161000  0.7500000    0.00000       Uiso       1.00
        N3          N  0.8956000  0.8106000  0.7500000    0.00000       Uiso       1.00
        N4          N  0.9319000  0.8617000  0.7500000    0.00000       Uiso       1.00
        O1          O  0.7410000  0.5380000  0.7500000    0.00000       Uiso       1.00
        O2          O  0.9585000  0.7918000  0.7500000    0.00000       Uiso       1.00
        O3          O  0.7066000  0.1009001  0.7500000    0.00000       Uiso       1.00
        O4          O  0.7994000  0.7205000  0.7500000    0.00000       Uiso       1.00
       H59          H  0.7567000  0.6211001  0.7500000    0.00000       Uiso       1.00
       H60          H  0.9434000  0.7071001  0.7500000    0.00000       Uiso       1.00
       H61          H  0.8578000  0.8008000  0.7500000    0.00000       Uiso       1.00
       H62          H  0.8812000  0.8879000  0.7500000    0.00000       Uiso       1.00
       H63          H  0.9101000  0.9785000  0.7500000    0.00000       Uiso       1.00
       H64          H  0.7983000  0.4262000  0.7500000    0.00000       Uiso       1.00
       H65          H  0.6682000  0.4155000  0.7500000    0.00000       Uiso       1.00
       H66          H  0.4772000  0.3156000  0.7500000    0.00000       Uiso       1.00
       H67          H  0.7671000  0.7789999  0.7500000    0.00000       Uiso       1.00
       H68          H  0.0081000  0.6030000  0.7500000    0.00000       Uiso       1.00
       C14          C  0.5743000  0.3368000  0.7500000    0.00000       Uiso       1.00
       C15          C  0.4461000  0.2328000  0.7500000    0.00000       Uiso       1.00
       C16          C  0.3898000  0.2112000  0.7500000    0.00000       Uiso       1.00
       C17          C  0.3651000  0.2401000  0.7500000    0.00000       Uiso       1.00
       C18          C  0.3118000  0.2144000  0.7500000    0.00000       Uiso       1.00
       C19          C  0.2822000  0.1608000  0.7500000    0.00000       Uiso       1.00
       C20          C  0.3603000  0.1578000  0.7500000    0.00000       Uiso       1.00
       C21          C  0.3075000  0.1322000  0.7500000    0.00000       Uiso       1.00
       C22          C  0.2254000  0.1381000  0.7500000    0.00000       Uiso       1.00
       C23          C  0.1030000  0.0235000  0.7500000    0.00000       Uiso       1.00
       C24          C  0.7325000  0.7408999  0.7500000    0.00000       Uiso       1.00
       C25          C  0.9529999  0.6280000  0.7500000    0.00000       Uiso       1.00
       C26          C  0.9663000  0.5862000  0.7500000    0.00000       Uiso       1.00
        N5          N  0.5331000  0.2940000  0.7500000    0.00000       Uiso       1.00
        N6          N  0.4839000  0.2853000  0.7500000    0.00000       Uiso       1.00
        N7          N  0.1894000  0.0850000  0.7500000    0.00000       Uiso       1.00
        N8          N  0.1383000  0.0702000  0.7500000    0.00000       Uiso       1.00
        O5          O  0.4620000  0.2030000  0.7500000    0.00000       Uiso       1.00
        O6          O  0.2082000  0.1667000  0.7500000    0.00000       Uiso       1.00
        O7          O  0.8990999  0.6057000  0.7500000    0.00000       Uiso       1.00
        O8          O  0.2795000  0.0789000  0.7500000    0.00000       Uiso       1.00
       H69          H  0.3788999  0.1356000  0.7500000    0.00000       Uiso       1.00
       H70          H  0.2929000  0.2363000  0.7500000    0.00000       Uiso       1.00
       H71          H  0.1992000  0.0570000  0.7500000    0.00000       Uiso       1.00
       H72          H  0.1121000  0.9933000  0.7500000    0.00000       Uiso       1.00
       H73          H  0.0215000  0.9316000  0.7500000    0.00000       Uiso       1.00
       H74          H  0.5738000  0.3721000  0.7500000    0.00000       Uiso       1.00
       H75          H  0.5845000  0.2527000  0.7500000    0.00000       Uiso       1.00
       H76          H  0.6844000  0.1616000  0.7500000    0.00000       Uiso       1.00
       H77          H  0.2210001  0.9881001  0.7500000    0.00000       Uiso       1.00
       H78          H  0.3970000  0.4051000  0.7500000    0.00000       Uiso       1.00
       C27          C  0.6632000  0.2375000  0.7500000    0.00000       Uiso       1.00
       C28          C  0.7672000  0.2133000  0.7500000    0.00000       Uiso       1.00
       C29          C  0.7888001  0.1786000  0.7500000    0.00000       Uiso       1.00
       C30          C  0.7599000  0.1250000  0.7500000    0.00000       Uiso       1.00
       C31          C  0.7856000  0.0974000  0.7500000    0.00000       Uiso       1.00
       C32          C  0.8392000  0.1214000  0.7500000    0.00000       Uiso       1.00
       C33          C  0.8422000  0.2025000  0.7500000    0.00000       Uiso       1.00
       C34          C  0.8678001  0.1753000  0.7500000    0.00000       Uiso       1.00
       C35          C  0.8619001  0.0873000  0.7500000    0.00000       Uiso       1.00
       C36          C  0.9765000  0.0795000  0.7500000    0.00000       Uiso       1.00
       C37          C  0.2591001  0.9916000  0.7500000    0.00000       Uiso       1.00
       C38          C  0.3720000  0.3250000  0.7500000    0.00000       Uiso       1.00
       C39          C  0.4138000  0.3801000  0.7500000    0.00000       Uiso       1.00
        N9          N  0.7060000  0.2391000  0.7500000    0.00000       Uiso       1.00
       N10          N  0.7147000  0.1986000  0.7500000    0.00000       Uiso       1.00
       N11          N  0.9150000  0.1044000  0.7500000    0.00000       Uiso       1.00
       N12          N  0.9298000  0.0681000  0.7500000    0.00000       Uiso       1.00
        O9          O  0.7970000  0.2590000  0.7500000    0.00000       Uiso       1.00
       O10          O  0.8333000  0.0415000  0.7500000    0.00000       Uiso       1.00
       O11          O  0.3943000  0.2934000  0.7500000    0.00000       Uiso       1.00
       O12          O  0.9211001  0.2006000  0.7500000    0.00000       Uiso       1.00
       H79          H  0.1356000  0.7567000  0.2500000    0.00000       Uiso       1.00
       H80          H  0.2363000  0.9434000  0.2500000    0.00000       Uiso       1.00
       H81          H  0.0570000  0.8578000  0.2500000    0.00000       Uiso       1.00
       H82          H  0.9933000  0.8812000  0.2500000    0.00000       Uiso       1.00
       H83          H  0.9316000  0.9101000  0.2500000    0.00000       Uiso       1.00
       H84          H  0.3721000  0.7983000  0.2500000    0.00000       Uiso       1.00
       H85          H  0.2527000  0.6682000  0.2500000    0.00000       Uiso       1.00
       H86          H  0.1616000  0.4772001  0.2500000    0.00000       Uiso       1.00
       H87          H  0.9881000  0.7671000  0.2500000    0.00000       Uiso       1.00
       H88          H  0.4051000  0.0081000  0.2500000    0.00000       Uiso       1.00
       C40          C  0.2375000  0.5743000  0.2500000    0.00000       Uiso       1.00
       C41          C  0.2133000  0.4461000  0.2500000    0.00000       Uiso       1.00
       C42          C  0.1786000  0.3898000  0.2500000    0.00000       Uiso       1.00
       C43          C  0.1250000  0.3651000  0.2500000    0.00000       Uiso       1.00
       C44          C  0.0974000  0.3118000  0.2500000    0.00000       Uiso       1.00
       C45          C  0.1214000  0.2822000  0.2500000    0.00000       Uiso       1.00
       C46          C  0.2025000  0.3603000  0.2500000    0.00000       Uiso       1.00
       C47          C  0.1753000  0.3075000  0.2500000    0.00000       Uiso       1.00
       C48          C  0.0873000  0.2254000  0.2500000    0.00000       Uiso       1.00
       C49          C  0.0795000  0.1030000  0.2500000    0.00000       Uiso       1.00
       C50          C  0.9916000  0.7325000  0.2500000    0.00000       Uiso       1.00
       C51          C  0.3250000  0.9530000  0.2500000    0.00000       Uiso       1.00
       C52          C  0.3801000  0.9663001  0.2500000    0.00000       Uiso       1.00
       N13          N  0.2391000  0.5331000  0.2500000    0.00000       Uiso       1.00
       N14          N  0.1986000  0.4839000  0.2500000    0.00000       Uiso       1.00
       N15          N  0.1044000  0.1894000  0.2500000    0.00000       Uiso       1.00
       N16          N  0.0681000  0.1383000  0.2500000    0.00000       Uiso       1.00
       O13          O  0.2590000  0.4620000  0.2500000    0.00000       Uiso       1.00
       O14          O  0.0415000  0.2082000  0.2500000    0.00000       Uiso       1.00
       O15          O  0.2934000  0.8990999  0.2500000    0.00000       Uiso       1.00
       O16          O  0.2006000  0.2795000  0.2500000    0.00000       Uiso       1.00
       H89          H  0.2433000  0.3788999  0.2500000    0.00000       Uiso       1.00
       H90          H  0.0566000  0.2929000  0.2500000    0.00000       Uiso       1.00
       H91          H  0.1422000  0.1992000  0.2500000    0.00000       Uiso       1.00
       H92          H  0.1188000  0.1121000  0.2500000    0.00000       Uiso       1.00
       H93          H  0.0899000  0.0215000  0.2500000    0.00000       Uiso       1.00
       H94          H  0.2017000  0.5738000  0.2500000    0.00000       Uiso       1.00
       H95          H  0.3318000  0.5845000  0.2500000    0.00000       Uiso       1.00
       H96          H  0.5228000  0.6844000  0.2500000    0.00000       Uiso       1.00
       H97          H  0.2329000  0.2210001  0.2500000    0.00000       Uiso       1.00
       H98          H  0.9919000  0.3970000  0.2500000    0.00000       Uiso       1.00
       C53          C  0.4257000  0.6632000  0.2500000    0.00000       Uiso       1.00
       C54          C  0.5539000  0.7672000  0.2500000    0.00000       Uiso       1.00
       C55          C  0.6102000  0.7888000  0.2500000    0.00000       Uiso       1.00
       C56          C  0.6349000  0.7599000  0.2500000    0.00000       Uiso       1.00
       C57          C  0.6882000  0.7856000  0.2500000    0.00000       Uiso       1.00
       C58          C  0.7178000  0.8392000  0.2500000    0.00000       Uiso       1.00
       C59          C  0.6397000  0.8422000  0.2500000    0.00000       Uiso       1.00
       C60          C  0.6925000  0.8678000  0.2500000    0.00000       Uiso       1.00
       C61          C  0.7746000  0.8619000  0.2500000    0.00000       Uiso       1.00
       C62          C  0.8970000  0.9765001  0.2500000    0.00000       Uiso       1.00
       C63          C  0.2675000  0.2591001  0.2500000    0.00000       Uiso       1.00
       C64          C  0.0470001  0.3720000  0.2500000    0.00000       Uiso       1.00
       C65          C  0.0337000  0.4138000  0.2500000    0.00000       Uiso       1.00
       N17          N  0.4669000  0.7060000  0.2500000    0.00000       Uiso       1.00
       N18          N  0.5161000  0.7147000  0.2500000    0.00000       Uiso       1.00
       N19          N  0.8106000  0.9150000  0.2500000    0.00000       Uiso       1.00
       N20          N  0.8617000  0.9298000  0.2500000    0.00000       Uiso       1.00
       O17          O  0.5380000  0.7970000  0.2500000    0.00000       Uiso       1.00
       O18          O  0.7918000  0.8333000  0.2500000    0.00000       Uiso       1.00
       O19          O  0.1009001  0.3943000  0.2500000    0.00000       Uiso       1.00
       O20          O  0.7205000  0.9211000  0.2500000    0.00000       Uiso       1.00
       H99          H  0.6211001  0.8644001  0.2500000    0.00000       Uiso       1.00
      H100          H  0.7071000  0.7637000  0.2500000    0.00000       Uiso       1.00
      H101          H  0.8008000  0.9430000  0.2500000    0.00000       Uiso       1.00
      H102          H  0.8879000  0.0067000  0.2500000    0.00000       Uiso       1.00
      H103          H  0.9785000  0.0684000  0.2500000    0.00000       Uiso       1.00
      H104          H  0.4262000  0.6279000  0.2500000    0.00000       Uiso       1.00
      H105          H  0.4155000  0.7473000  0.2500000    0.00000       Uiso       1.00
      H106          H  0.3156000  0.8384001  0.2500000    0.00000       Uiso       1.00
      H107          H  0.7790000  0.0118999  0.2500000    0.00000       Uiso       1.00
      H108          H  0.6030000  0.5949000  0.2500000    0.00000       Uiso       1.00
       C66          C  0.3368000  0.7625000  0.2500000    0.00000       Uiso       1.00
       C67          C  0.2328000  0.7867000  0.2500000    0.00000       Uiso       1.00
       C68          C  0.2112000  0.8214000  0.2500000    0.00000       Uiso       1.00
       C69          C  0.2401000  0.8750000  0.2500000    0.00000       Uiso       1.00
       C70          C  0.2144000  0.9026000  0.2500000    0.00000       Uiso       1.00
       C71          C  0.1608000  0.8786000  0.2500000    0.00000       Uiso       1.00
       C72          C  0.1578000  0.7975000  0.2500000    0.00000       Uiso       1.00
       C73          C  0.1322000  0.8247000  0.2500000    0.00000       Uiso       1.00
       C74          C  0.1381000  0.9127000  0.2500000    0.00000       Uiso       1.00
       C75          C  0.0235000  0.9205000  0.2500000    0.00000       Uiso       1.00
       C76          C  0.7408999  0.0084000  0.2500000    0.00000       Uiso       1.00
       C77          C  0.6280000  0.6750001  0.2500000    0.00000       Uiso       1.00
       C78          C  0.5862000  0.6198999  0.2500000    0.00000       Uiso       1.00
       N21          N  0.2940000  0.7609000  0.2500000    0.00000       Uiso       1.00
       N22          N  0.2853000  0.8014000  0.2500000    0.00000       Uiso       1.00
       N23          N  0.0850000  0.8956000  0.2500000    0.00000       Uiso       1.00
       N24          N  0.0702000  0.9319000  0.2500000    0.00000       Uiso       1.00
       O21          O  0.2030000  0.7410000  0.2500000    0.00000       Uiso       1.00
       O22          O  0.1667000  0.9585000  0.2500000    0.00000       Uiso       1.00
       O23          O  0.6057000  0.7066000  0.2500000    0.00000       Uiso       1.00
       O24          O  0.0789000  0.7994000  0.2500000    0.00000       Uiso       1.00
       C79          C  0.0506000  0.0120000  0.2500000    0.00000       Uiso       1.00
       C80          C  0.0388000  0.0505000  0.2500000    0.00000       Uiso       1.00
       C81          C  0.3321000  0.6203001  0.2500000    0.00000       Uiso       1.00
       C82          C  0.3785000  0.6650000  0.2500000    0.00000       Uiso       1.00
       C83          C  0.2545000  0.3015000  0.2500000    0.00000       Uiso       1.00
       C84          C  0.9880000  0.0386000  0.2500000    0.00000       Uiso       1.00
       C85          C  0.9495000  0.9883000  0.2500000    0.00000       Uiso       1.00
       C86          C  0.3797000  0.7118000  0.2500000    0.00000       Uiso       1.00
       C87          C  0.3350000  0.7135000  0.2500000    0.00000       Uiso       1.00
       C88          C  0.6985000  0.9530001  0.2500000    0.00000       Uiso       1.00
       C89          C  0.9614000  0.9494000  0.2500000    0.00000       Uiso       1.00
       C90          C  0.0117000  0.9612000  0.2500000    0.00000       Uiso       1.00
       C91          C  0.2882000  0.6679000  0.2500000    0.00000       Uiso       1.00
       C92          C  0.2865000  0.6215000  0.2500000    0.00000       Uiso       1.00
       C93          C  0.0470000  0.7455000  0.2500000    0.00000       Uiso       1.00
       C94          C  0.9494000  0.9880000  0.7500000    0.00000       Uiso       1.00
       C95          C  0.9612000  0.9495000  0.7500000    0.00000       Uiso       1.00
       C96          C  0.6679000  0.3797000  0.7500000    0.00000       Uiso       1.00
       C97          C  0.6215000  0.3350000  0.7500000    0.00000       Uiso       1.00
       C98          C  0.7455000  0.6985000  0.7500000    0.00000       Uiso       1.00
       C99          C  0.0120000  0.9614000  0.7500000    0.00000       Uiso       1.00
      C100          C  0.0505000  0.0117000  0.7500000    0.00000       Uiso       1.00
      C101          C  0.6203000  0.2882000  0.7500000    0.00000       Uiso       1.00
      C102          C  0.6650000  0.2865000  0.7500000    0.00000       Uiso       1.00
      C103          C  0.3015000  0.0470000  0.7500000    0.00000       Uiso       1.00
      C104          C  0.0386000  0.0506000  0.7500000    0.00000       Uiso       1.00
      C105          C  0.9883000  0.0388000  0.7500000    0.00000       Uiso       1.00
      C106          C  0.7118000  0.3321000  0.7500000    0.00000       Uiso       1.00
      C107          C  0.7135000  0.3785000  0.7500000    0.00000       Uiso       1.00
      C108          C  0.9530001  0.2545000  0.7500000    0.00000       Uiso       1.00
