data_COF-43-bnn
_audit_creation_date              0000-00-00
_audit_creation_method            'LanYouShi'
_symmetry_space_group_name_H-M    'P1'
_cell_length_a                    45.8876991
_cell_length_b                    45.8876991
_cell_length_c                    3.9784000
_cell_angle_alpha                 90.0000000
_cell_angle_beta                  90.0000000
_cell_angle_gamma                 120.0000000
loop_
_atom_site_label
_atom_site_type_symbol
_atom_site_fract_x
_atom_site_fract_y
_atom_site_fract_z
_atom_site_U_iso_or_equiv
_atom_site_adp_type
_atom_site_occupancy
        H1          H  0.5706000  0.6333000  0.2232000    0.00000       Uiso       1.00
        H2          H  0.5805000  0.5845000  0.2259000    0.00000       Uiso       1.00
        H3          H  0.3667000  0.9373000  0.2232000    0.00000       Uiso       1.00
        H4          H  0.4155000  0.9960001  0.2259000    0.00000       Uiso       1.00
        H5          H  0.0627000  0.4294000  0.2232000    0.00000       Uiso       1.00
        H6          H  0.0040000  0.4195000  0.2259000    0.00000       Uiso       1.00
        H7          H  0.4294001  0.3667000  0.2232000    0.00000       Uiso       1.00
        H8          H  0.4195000  0.4155000  0.2259000    0.00000       Uiso       1.00
        H9          H  0.6333000  0.0627000  0.2232000    0.00000       Uiso       1.00
       H10          H  0.5845000  0.0040000  0.2259000    0.00000       Uiso       1.00
       H11          H  0.9373000  0.5706000  0.2232000    0.00000       Uiso       1.00
       H12          H  0.9960000  0.5805001  0.2259000    0.00000       Uiso       1.00
       H13          H  0.4294001  0.3667000 -0.2232000    0.00000       Uiso       1.00
       H14          H  0.4195000  0.4155000 -0.2259000    0.00000       Uiso       1.00
       H15          H  0.6333000  0.0627000 -0.2232000    0.00000       Uiso       1.00
       H16          H  0.5845000  0.0040000 -0.2259000    0.00000       Uiso       1.00
       H17          H  0.9373000  0.5706000 -0.2232000    0.00000       Uiso       1.00
       H18          H  0.9960000  0.5805001 -0.2259000    0.00000       Uiso       1.00
       H19          H  0.5706000  0.6333000 -0.2232000    0.00000       Uiso       1.00
       H20          H  0.5805000  0.5845000 -0.2259000    0.00000       Uiso       1.00
       H21          H  0.3667000  0.9373000 -0.2232000    0.00000       Uiso       1.00
       H22          H  0.4155000  0.9960001 -0.2259000    0.00000       Uiso       1.00
       H23          H  0.0627000  0.4294000 -0.2232000    0.00000       Uiso       1.00
       H24          H  0.0040000  0.4195000 -0.2259000    0.00000       Uiso       1.00
       H25          H  0.4287000  0.8167000  0.0000000    0.00000       Uiso       1.00
       H26          H  0.4109000  0.7582000  0.0000000    0.00000       Uiso       1.00
       H27          H  0.3259000  0.7943000  0.0000000    0.00000       Uiso       1.00
       H28          H  0.3066000  0.7355000  0.0000000    0.00000       Uiso       1.00
       H29          H  0.3710000  0.8539001  0.0000000    0.00000       Uiso       1.00
       H30          H  0.4151000  0.9108000  0.0000000    0.00000       Uiso       1.00
       H31          H  0.3936000  0.7078000  0.0000000    0.00000       Uiso       1.00
       H32          H  0.5619000  0.5319000  0.0000000    0.00000       Uiso       1.00
       H33          H  0.6088000  0.6428000  0.0000000    0.00000       Uiso       1.00
        C1          C  0.4653000  0.4820000  0.0000000    0.00000       Uiso       1.00
        C2          C  0.4815000  0.5176000  0.0000000    0.00000       Uiso       1.00
        C3          C  0.4592000  0.5332000  0.0000000    0.00000       Uiso       1.00
        C4          C  0.5171000  0.5358000  0.0000000    0.00000       Uiso       1.00
        C5          C  0.4564000  0.6103000  0.0000000    0.00000       Uiso       1.00
        C6          C  0.3676000  0.6900000  0.0000000    0.00000       Uiso       1.00
        C7          C  0.3445000  0.7019000  0.0000000    0.00000       Uiso       1.00
        C8          C  0.8099000  0.4312000  0.0000000    0.00000       Uiso       1.00
        C9          C  0.7395000  0.3831000  0.0000000    0.00000       Uiso       1.00
       C10          C  0.7987000  0.3967000  0.0000000    0.00000       Uiso       1.00
       C11          C  0.7862000  0.4417000  0.0000000    0.00000       Uiso       1.00
       C12          C  0.7643000  0.3731000  0.0000000    0.00000       Uiso       1.00
       C13          C  0.7517000  0.4183000  0.0000000    0.00000       Uiso       1.00
       C14          C  0.5701000  0.5902001  0.0000000    0.00000       Uiso       1.00
       C15          C  0.5809000  0.6272001  0.0000000    0.00000       Uiso       1.00
        O1          O  0.4288000  0.5141000  0.0000000    0.00000       Uiso       1.00
        O2          O  0.5342000  0.5712000  0.0000000    0.00000       Uiso       1.00
        N1          N  0.4704000  0.5671000  0.0000000    0.00000       Uiso       1.00
        N2          N  0.4471000  0.5786000  0.0000000    0.00000       Uiso       1.00
       H34          H  0.1833000  0.6120000  0.0000000    0.00000       Uiso       1.00
       H35          H  0.2418000  0.6527000  0.0000000    0.00000       Uiso       1.00
       H36          H  0.2057000  0.5315999  0.0000000    0.00000       Uiso       1.00
       H37          H  0.2645000  0.5711000  0.0000000    0.00000       Uiso       1.00
       H38          H  0.1461000  0.5171000  0.0000000    0.00000       Uiso       1.00
       H39          H  0.0892000  0.5043001  0.0000000    0.00000       Uiso       1.00
       H40          H  0.2922000  0.6858000  0.0000000    0.00000       Uiso       1.00
       H41          H  0.4681000  0.0300000  0.0000000    0.00000       Uiso       1.00
       H42          H  0.3572000  0.9660000  0.0000000    0.00000       Uiso       1.00
       C16          C  0.5180000  0.9833000  0.0000000    0.00000       Uiso       1.00
       C17          C  0.4824000  0.9639000  0.0000000    0.00000       Uiso       1.00
       C18          C  0.4668000  0.9260000  0.0000000    0.00000       Uiso       1.00
       C19          C  0.4642000  0.9813000  0.0000000    0.00000       Uiso       1.00
       C20          C  0.3897000  0.8461000  0.0000000    0.00000       Uiso       1.00
       C21          C  0.3100000  0.6776000  0.0000000    0.00000       Uiso       1.00
       C22          C  0.2981000  0.6426000  0.0000000    0.00000       Uiso       1.00
       C23          C  0.5688000  0.3787000  0.0000000    0.00000       Uiso       1.00
       C24          C  0.6169000  0.3564000  0.0000000    0.00000       Uiso       1.00
       C25          C  0.6033000  0.4020000  0.0000000    0.00000       Uiso       1.00
       C26          C  0.5583000  0.3445000  0.0000000    0.00000       Uiso       1.00
       C27          C  0.6269000  0.3912000  0.0000000    0.00000       Uiso       1.00
       C28          C  0.5817000  0.3334000  0.0000000    0.00000       Uiso       1.00
       C29          C  0.4098000  0.9799001  0.0000000    0.00000       Uiso       1.00
       C30          C  0.3728000  0.9537000  0.0000000    0.00000       Uiso       1.00
        O3          O  0.4859000  0.9147000  0.0000000    0.00000       Uiso       1.00
        O4          O  0.4288000  0.9630001  0.0000000    0.00000       Uiso       1.00
        N3          N  0.4329000  0.9033000  0.0000000    0.00000       Uiso       1.00
        N4          N  0.4214000  0.8685000  0.0000000    0.00000       Uiso       1.00
       H43          H  0.3880000  0.5713000  0.0000000    0.00000       Uiso       1.00
       H44          H  0.3473000  0.5891000  0.0000000    0.00000       Uiso       1.00
       H45          H  0.4684001  0.6741000  0.0000000    0.00000       Uiso       1.00
       H46          H  0.4289000  0.6934000  0.0000000    0.00000       Uiso       1.00
       H47          H  0.4829000  0.6290000  0.0000000    0.00000       Uiso       1.00
       H48          H  0.4957000  0.5849000  0.0000000    0.00000       Uiso       1.00
       H49          H  0.3142000  0.6064000  0.0000000    0.00000       Uiso       1.00
       H50          H  0.9700000  0.4381000  0.0000000    0.00000       Uiso       1.00
       H51          H  0.0340000  0.3912000  0.0000000    0.00000       Uiso       1.00
       C31          C  0.0167000  0.5347000  0.0000000    0.00000       Uiso       1.00
       C32          C  0.0361000  0.5185000  0.0000000    0.00000       Uiso       1.00
       C33          C  0.0740000  0.5408000  0.0000000    0.00000       Uiso       1.00
       C34          C  0.0187000  0.4829000  0.0000000    0.00000       Uiso       1.00
       C35          C  0.1539000  0.5436000  0.0000000    0.00000       Uiso       1.00
       C36          C  0.3224000  0.6324000  0.0000000    0.00000       Uiso       1.00
       C37          C  0.3574000  0.6555000  0.0000000    0.00000       Uiso       1.00
       C38          C  0.6213000  0.1901000  0.0000000    0.00000       Uiso       1.00
       C39          C  0.6436000  0.2605000  0.0000000    0.00000       Uiso       1.00
       C40          C  0.5980000  0.2013000  0.0000000    0.00000       Uiso       1.00
       C41          C  0.6555000  0.2138000  0.0000000    0.00000       Uiso       1.00
       C42          C  0.6088000  0.2357000  0.0000000    0.00000       Uiso       1.00
       C43          C  0.6666000  0.2483000  0.0000000    0.00000       Uiso       1.00
       C44          C  0.0201000  0.4299000  0.0000000    0.00000       Uiso       1.00
       C45          C  0.0463000  0.4191000  0.0000000    0.00000       Uiso       1.00
        O5          O  0.0853000  0.5712000  0.0000000    0.00000       Uiso       1.00
        O6          O  0.0370000  0.4658000  0.0000000    0.00000       Uiso       1.00
        N5          N  0.0967000  0.5296000  0.0000000    0.00000       Uiso       1.00
        N6          N  0.1315000  0.5529000  0.0000000    0.00000       Uiso       1.00
       H52          H  0.5713000  0.1833000  0.0000000    0.00000       Uiso       1.00
       H53          H  0.5891000  0.2418000  0.0000000    0.00000       Uiso       1.00
       H54          H  0.6741000  0.2057000  0.0000000    0.00000       Uiso       1.00
       H55          H  0.6934000  0.2645001  0.0000000    0.00000       Uiso       1.00
       H56          H  0.6290000  0.1461000  0.0000000    0.00000       Uiso       1.00
       H57          H  0.5849000  0.0892000  0.0000000    0.00000       Uiso       1.00
       H58          H  0.6064000  0.2922000  0.0000000    0.00000       Uiso       1.00
       H59          H  0.4381000  0.4681000  0.0000000    0.00000       Uiso       1.00
       H60          H  0.3912000  0.3572000  0.0000000    0.00000       Uiso       1.00
       C46          C  0.5347000  0.5180000  0.0000000    0.00000       Uiso       1.00
       C47          C  0.5185000  0.4824000  0.0000000    0.00000       Uiso       1.00
       C48          C  0.5408000  0.4668000  0.0000000    0.00000       Uiso       1.00
       C49          C  0.4829000  0.4642000  0.0000000    0.00000       Uiso       1.00
       C50          C  0.5436000  0.3897000  0.0000000    0.00000       Uiso       1.00
       C51          C  0.6324000  0.3100000  0.0000000    0.00000       Uiso       1.00
       C52          C  0.6555000  0.2981000  0.0000000    0.00000       Uiso       1.00
       C53          C  0.1901000  0.5688000  0.0000000    0.00000       Uiso       1.00
       C54          C  0.2605000  0.6169000  0.0000000    0.00000       Uiso       1.00
       C55          C  0.2013000  0.6033000  0.0000000    0.00000       Uiso       1.00
       C56          C  0.2138000  0.5583000  0.0000000    0.00000       Uiso       1.00
       C57          C  0.2357000  0.6269000  0.0000000    0.00000       Uiso       1.00
       C58          C  0.2483000  0.5817000  0.0000000    0.00000       Uiso       1.00
       C59          C  0.4299000  0.4098000  0.0000000    0.00000       Uiso       1.00
       C60          C  0.4191000  0.3728000  0.0000000    0.00000       Uiso       1.00
        O7          O  0.5712000  0.4859000  0.0000000    0.00000       Uiso       1.00
        O8          O  0.4658000  0.4288000  0.0000000    0.00000       Uiso       1.00
        N7          N  0.5296000  0.4329000  0.0000000    0.00000       Uiso       1.00
        N8          N  0.5529000  0.4214000  0.0000000    0.00000       Uiso       1.00
       H61          H  0.8167000  0.3880000  0.0000000    0.00000       Uiso       1.00
       H62          H  0.7582000  0.3473000  0.0000000    0.00000       Uiso       1.00
       H63          H  0.7943000  0.4684001  0.0000000    0.00000       Uiso       1.00
       H64          H  0.7355000  0.4289000  0.0000000    0.00000       Uiso       1.00
       H65          H  0.8539000  0.4829000  0.0000000    0.00000       Uiso       1.00
       H66          H  0.9108000  0.4957000  0.0000000    0.00000       Uiso       1.00
       H67          H  0.7078000  0.3142000  0.0000000    0.00000       Uiso       1.00
       H68          H  0.5319000  0.9700000  0.0000000    0.00000       Uiso       1.00
       H69          H  0.6428000  0.0340000  0.0000000    0.00000       Uiso       1.00
       C61          C  0.4820000  0.0167000  0.0000000    0.00000       Uiso       1.00
       C62          C  0.5176000  0.0361000  0.0000000    0.00000       Uiso       1.00
       C63          C  0.5332000  0.0740000  0.0000000    0.00000       Uiso       1.00
       C64          C  0.5358000  0.0187000  0.0000000    0.00000       Uiso       1.00
       C65          C  0.6103000  0.1539000  0.0000000    0.00000       Uiso       1.00
       C66          C  0.6900000  0.3224000  0.0000000    0.00000       Uiso       1.00
       C67          C  0.7019000  0.3574000  0.0000000    0.00000       Uiso       1.00
       C68          C  0.4312000  0.6213000  0.0000000    0.00000       Uiso       1.00
       C69          C  0.3831000  0.6436000  0.0000000    0.00000       Uiso       1.00
       C70          C  0.3967000  0.5980000  0.0000000    0.00000       Uiso       1.00
       C71          C  0.4417000  0.6555001  0.0000000    0.00000       Uiso       1.00
       C72          C  0.3731000  0.6088001  0.0000000    0.00000       Uiso       1.00
       C73          C  0.4183000  0.6666000  0.0000000    0.00000       Uiso       1.00
       C74          C  0.5902000  0.0201000  0.0000000    0.00000       Uiso       1.00
       C75          C  0.6272000  0.0463000  0.0000000    0.00000       Uiso       1.00
        O9          O  0.5141000  0.0853000  0.0000000    0.00000       Uiso       1.00
       O10          O  0.5712000  0.0370000  0.0000000    0.00000       Uiso       1.00
        N9          N  0.5671000  0.0967000  0.0000000    0.00000       Uiso       1.00
       N10          N  0.5786000  0.1315000  0.0000000    0.00000       Uiso       1.00
       H70          H  0.6120000  0.4287000  0.0000000    0.00000       Uiso       1.00
       H71          H  0.6527000  0.4109000  0.0000000    0.00000       Uiso       1.00
       H72          H  0.5316000  0.3259000  0.0000000    0.00000       Uiso       1.00
       H73          H  0.5711001  0.3066000  0.0000000    0.00000       Uiso       1.00
       H74          H  0.5171000  0.3710000  0.0000000    0.00000       Uiso       1.00
       H75          H  0.5043001  0.4151000  0.0000000    0.00000       Uiso       1.00
       H76          H  0.6858000  0.3936000  0.0000000    0.00000       Uiso       1.00
       H77          H  0.0300000  0.5619000  0.0000000    0.00000       Uiso       1.00
       H78          H  0.9660000  0.6088000  0.0000000    0.00000       Uiso       1.00
       C76          C  0.9833000  0.4653000  0.0000000    0.00000       Uiso       1.00
       C77          C  0.9639000  0.4815000  0.0000000    0.00000       Uiso       1.00
       C78          C  0.9260000  0.4592000  0.0000000    0.00000       Uiso       1.00
       C79          C  0.9813001  0.5171000  0.0000000    0.00000       Uiso       1.00
       C80          C  0.8461000  0.4564000  0.0000000    0.00000       Uiso       1.00
       C81          C  0.6776000  0.3676000  0.0000000    0.00000       Uiso       1.00
       C82          C  0.6426000  0.3445000  0.0000000    0.00000       Uiso       1.00
       C83          C  0.3787000  0.8099000  0.0000000    0.00000       Uiso       1.00
       C84          C  0.3564000  0.7395000  0.0000000    0.00000       Uiso       1.00
       C85          C  0.4020000  0.7987000  0.0000000    0.00000       Uiso       1.00
       C86          C  0.3445000  0.7862000  0.0000000    0.00000       Uiso       1.00
       C87          C  0.3912000  0.7643000  0.0000000    0.00000       Uiso       1.00
       C88          C  0.3334000  0.7517000  0.0000000    0.00000       Uiso       1.00
       C89          C  0.9799001  0.5701000  0.0000000    0.00000       Uiso       1.00
       C90          C  0.9537000  0.5809000  0.0000000    0.00000       Uiso       1.00
       O11          O  0.9147000  0.4288000  0.0000000    0.00000       Uiso       1.00
       O12          O  0.9630001  0.5342000  0.0000000    0.00000       Uiso       1.00
       N11          N  0.9033000  0.4704000  0.0000000    0.00000       Uiso       1.00
       N12          N  0.8685000  0.4471000  0.0000000    0.00000       Uiso       1.00
