data_COF-5
_audit_creation_date              0000-00-00
_audit_creation_method            'LanYouShi'
_symmetry_space_group_name_H-M    'P1'
_cell_length_a                    29.7010002
_cell_length_b                    29.7010002
_cell_length_c                    3.4602001
_cell_angle_alpha                 90.0000000
_cell_angle_beta                  90.0000000
_cell_angle_gamma                 120.0000000
loop_
_atom_site_label
_atom_site_type_symbol
_atom_site_fract_x
_atom_site_fract_y
_atom_site_fract_z
_atom_site_U_iso_or_equiv
_atom_site_adp_type
_atom_site_occupancy
        B1          B  0.1082014  0.5514165  0.5000000    0.00000       Uiso       1.00
        B2          B  0.4378464  0.5514165  0.5000000    0.00000       Uiso       1.00
        B3          B  0.4378464  0.8810614  0.5000000    0.00000       Uiso       1.00
        B4          B  0.8810614  0.4378464  0.5000000    0.00000       Uiso       1.00
        B5          B  0.5514164  0.4378464  0.5000000    0.00000       Uiso       1.00
        B6          B  0.5514164  0.1082014  0.5000000    0.00000       Uiso       1.00
        O1          O  0.6076814  0.1389214  0.5000000    0.00000       Uiso       1.00
        C1          C  0.4677514  0.0215114  0.5000000    0.00000       Uiso       1.00
        C2          C  0.6141314  0.1879114  0.5000000    0.00000       Uiso       1.00
        C3          C  0.6610414  0.2335914  0.5000000    0.00000       Uiso       1.00
        C4          C  0.6615014  0.2808414  0.5000000    0.00000       Uiso       1.00
        O2          O  0.8503414  0.4633914  0.5000000    0.00000       Uiso       1.00
        C5          C  0.9677514  0.4408714  0.5000000    0.00000       Uiso       1.00
        C6          C  0.8013514  0.4208514  0.5000000    0.00000       Uiso       1.00
        C7          C  0.7556714  0.4220814  0.5000000    0.00000       Uiso       1.00
        C8          C  0.7084214  0.3752914  0.5000000    0.00000       Uiso       1.00
        O3          O  0.5258715  0.3815814  0.5000000    0.00000       Uiso       1.00
        C9          C  0.5483914  0.5215114  0.5000000    0.00000       Uiso       1.00
       C10          C  0.5684114  0.3751314  0.5000000    0.00000       Uiso       1.00
       C11          C  0.5671813  0.3282214  0.5000000    0.00000       Uiso       1.00
       C12          C  0.6139714  0.3277614  0.5000000    0.00000       Uiso       1.00
        O4          O  0.3815814  0.8503414  0.5000000    0.00000       Uiso       1.00
       C13          C  0.5215114  0.9677514  0.5000000    0.00000       Uiso       1.00
       C14          C  0.3751314  0.8013514  0.5000000    0.00000       Uiso       1.00
       C15          C  0.3282214  0.7556714  0.5000000    0.00000       Uiso       1.00
       C16          C  0.3277614  0.7084215  0.5000000    0.00000       Uiso       1.00
        O5          O  0.1389214  0.5258715  0.5000000    0.00000       Uiso       1.00
       C17          C  0.0215114  0.5483914  0.5000000    0.00000       Uiso       1.00
       C18          C  0.1879114  0.5684114  0.5000000    0.00000       Uiso       1.00
       C19          C  0.2335914  0.5671814  0.5000000    0.00000       Uiso       1.00
       C20          C  0.2808414  0.6139714  0.5000000    0.00000       Uiso       1.00
        O6          O  0.4633914  0.6076814  0.5000000    0.00000       Uiso       1.00
       C21          C  0.4408714  0.4677514  0.5000000    0.00000       Uiso       1.00
       C22          C  0.4208514  0.6141314  0.5000000    0.00000       Uiso       1.00
       C23          C  0.4220814  0.6610414  0.5000000    0.00000       Uiso       1.00
       C24          C  0.3752914  0.6615014  0.5000000    0.00000       Uiso       1.00
        O7          O  0.1389214  0.6076814  0.5000000    0.00000       Uiso       1.00
       C25          C  0.0215114  0.4677514  0.5000000    0.00000       Uiso       1.00
       C26          C  0.1879114  0.6141314  0.5000000    0.00000       Uiso       1.00
       C27          C  0.2335914  0.6610414  0.5000000    0.00000       Uiso       1.00
       C28          C  0.2808414  0.6615014  0.5000000    0.00000       Uiso       1.00
        O8          O  0.4633914  0.8503414  0.5000000    0.00000       Uiso       1.00
       C29          C  0.4408714  0.9677514  0.5000000    0.00000       Uiso       1.00
       C30          C  0.4208514  0.8013514  0.5000000    0.00000       Uiso       1.00
       C31          C  0.4220814  0.7556714  0.5000000    0.00000       Uiso       1.00
       C32          C  0.3752914  0.7084215  0.5000000    0.00000       Uiso       1.00
        O9          O  0.3815814  0.5258715  0.5000000    0.00000       Uiso       1.00
       C33          C  0.5215114  0.5483914  0.5000000    0.00000       Uiso       1.00
       C34          C  0.3751314  0.5684114  0.5000000    0.00000       Uiso       1.00
       C35          C  0.3282214  0.5671814  0.5000000    0.00000       Uiso       1.00
       C36          C  0.3277614  0.6139714  0.5000000    0.00000       Uiso       1.00
       O10          O  0.8503414  0.3815814  0.5000000    0.00000       Uiso       1.00
       C37          C  0.9677514  0.5215114  0.5000000    0.00000       Uiso       1.00
       C38          C  0.8013514  0.3751314  0.5000000    0.00000       Uiso       1.00
       C39          C  0.7556714  0.3282214  0.5000000    0.00000       Uiso       1.00
       C40          C  0.7084214  0.3277614  0.5000000    0.00000       Uiso       1.00
       O11          O  0.5258714  0.1389214  0.5000000    0.00000       Uiso       1.00
       C41          C  0.5483914  0.0215114  0.5000000    0.00000       Uiso       1.00
       C42          C  0.5684114  0.1879114  0.5000000    0.00000       Uiso       1.00
       C43          C  0.5671814  0.2335914  0.5000000    0.00000       Uiso       1.00
       C44          C  0.6139714  0.2808414  0.5000000    0.00000       Uiso       1.00
       O12          O  0.6076814  0.4633914  0.5000000    0.00000       Uiso       1.00
       C45          C  0.4677514  0.4408714  0.5000000    0.00000       Uiso       1.00
       C46          C  0.6141314  0.4208514  0.5000000    0.00000       Uiso       1.00
       C47          C  0.6610414  0.4220814  0.5000000    0.00000       Uiso       1.00
       C48          C  0.6615014  0.3752914  0.5000000    0.00000       Uiso       1.00
       C49          C  0.9408014  0.4677164  0.5000000    0.00000       Uiso       1.00
       C50          C  0.5215464  0.4677164  0.5000000    0.00000       Uiso       1.00
       C51          C  0.5215464  0.0484614  0.5000000    0.00000       Uiso       1.00
       C52          C  0.0484614  0.5215464  0.5000000    0.00000       Uiso       1.00
       C53          C  0.4677164  0.5215464  0.5000000    0.00000       Uiso       1.00
       C54          C  0.4677164  0.9408014  0.5000000    0.00000       Uiso       1.00
        H1          H  0.4473398  0.0418434  0.5000000    0.00000       Uiso       1.00
        H2          H  0.6958485  0.2326541  0.5000000    0.00000       Uiso       1.00
        H3          H  0.9474193  0.4001278  0.5000000    0.00000       Uiso       1.00
        H4          H  0.7566087  0.4578258  0.5000000    0.00000       Uiso       1.00
        H5          H  0.5891350  0.5419230  0.5000000    0.00000       Uiso       1.00
        H6          H  0.5314370  0.2934144  0.5000000    0.00000       Uiso       1.00
        H7          H  0.5419230  0.9474194  0.5000000    0.00000       Uiso       1.00
        H8          H  0.2934144  0.7566087  0.5000000    0.00000       Uiso       1.00
        H9          H  0.0418434  0.5891350  0.5000000    0.00000       Uiso       1.00
       H10          H  0.2326541  0.5314370  0.5000000    0.00000       Uiso       1.00
       H11          H  0.4001278  0.4473398  0.5000000    0.00000       Uiso       1.00
       H12          H  0.4578257  0.6958485  0.5000000    0.00000       Uiso       1.00
       H13          H  0.0418434  0.4473398  0.5000000    0.00000       Uiso       1.00
       H14          H  0.2326541  0.6958485  0.5000000    0.00000       Uiso       1.00
       H15          H  0.4001278  0.9474194  0.5000000    0.00000       Uiso       1.00
       H16          H  0.4578258  0.7566087  0.5000000    0.00000       Uiso       1.00
       H17          H  0.5419230  0.5891350  0.5000000    0.00000       Uiso       1.00
       H18          H  0.2934144  0.5314370  0.5000000    0.00000       Uiso       1.00
       H19          H  0.9474194  0.5419230  0.5000000    0.00000       Uiso       1.00
       H20          H  0.7566087  0.2934144  0.5000000    0.00000       Uiso       1.00
       H21          H  0.5891350  0.0418434  0.5000000    0.00000       Uiso       1.00
       H22          H  0.5314371  0.2326541  0.5000000    0.00000       Uiso       1.00
       H23          H  0.4473398  0.4001278  0.5000000    0.00000       Uiso       1.00
       H24          H  0.6958485  0.4578258  0.5000000    0.00000       Uiso       1.00
