data_crystal
 
_cell_length_a    29.70100
_cell_length_b    29.70100
_cell_length_c    3.46020
_cell_angle_alpha 90.00000
_cell_angle_beta  90.00000
_cell_angle_gamma 120.00000
 
_symmetry_space_group_name_Hall 'P 1'
_symmetry_space_group_name_H-M  'P 1'
 
loop_
_symmetry_equiv_pos_as_xyz
 'x,y,z' 
 
loop_
_atom_site_label
_atom_site_type_symbol
_atom_site_fract_x
_atom_site_fract_y
_atom_site_fract_z
_atom_site_charge
B          B       0.10820   0.55142   0.50000   0.0000000000
B          B       0.43785   0.55142   0.50000   0.0000000000
B          B       0.43785   0.88106   0.50000   0.0000000000
B          B       0.88106   0.43785   0.50000   0.0000000000
B          B       0.55142   0.43785   0.50000   0.0000000000
B          B       0.55142   0.10820   0.50000   0.0000000000
O          O       0.60768   0.13892   0.50000   0.0000000000
C          C       0.46775   0.02151   0.50000   0.0000000000
C          C       0.61413   0.18791   0.50000   0.0000000000
C          C       0.66104   0.23359   0.50000   0.0000000000
C          C       0.66150   0.28084   0.50000   0.0000000000
O          O       0.85034   0.46339   0.50000   0.0000000000
C          C       0.96775   0.44087   0.50000   0.0000000000
C          C       0.80135   0.42085   0.50000   0.0000000000
C          C       0.75567   0.42208   0.50000   0.0000000000
C          C       0.70842   0.37529   0.50000   0.0000000000
O          O       0.52587   0.38158   0.50000   0.0000000000
C          C       0.54839   0.52151   0.50000   0.0000000000
C          C       0.56841   0.37513   0.50000   0.0000000000
C          C       0.56718   0.32822   0.50000   0.0000000000
C          C       0.61397   0.32776   0.50000   0.0000000000
O          O       0.38158   0.85034   0.50000   0.0000000000
C          C       0.52151   0.96775   0.50000   0.0000000000
C          C       0.37513   0.80135   0.50000   0.0000000000
C          C       0.32822   0.75567   0.50000   0.0000000000
C          C       0.32776   0.70842   0.50000   0.0000000000
O          O       0.13892   0.52587   0.50000   0.0000000000
C          C       0.02151   0.54839   0.50000   0.0000000000
C          C       0.18791   0.56841   0.50000   0.0000000000
C          C       0.23359   0.56718   0.50000   0.0000000000
C          C       0.28084   0.61397   0.50000   0.0000000000
O          O       0.46339   0.60768   0.50000   0.0000000000
C          C       0.44087   0.46775   0.50000   0.0000000000
C          C       0.42085   0.61413   0.50000   0.0000000000
C          C       0.42208   0.66104   0.50000   0.0000000000
C          C       0.37529   0.66150   0.50000   0.0000000000
O          O       0.13892   0.60768   0.50000   0.0000000000
C          C       0.02151   0.46775   0.50000   0.0000000000
C          C       0.18791   0.61413   0.50000   0.0000000000
C          C       0.23359   0.66104   0.50000   0.0000000000
C          C       0.28084   0.66150   0.50000   0.0000000000
O          O       0.46339   0.85034   0.50000   0.0000000000
C          C       0.44087   0.96775   0.50000   0.0000000000
C          C       0.42085   0.80135   0.50000   0.0000000000
C          C       0.42208   0.75567   0.50000   0.0000000000
C          C       0.37529   0.70842   0.50000   0.0000000000
O          O       0.38158   0.52587   0.50000   0.0000000000
C          C       0.52151   0.54839   0.50000   0.0000000000
C          C       0.37513   0.56841   0.50000   0.0000000000
C          C       0.32822   0.56718   0.50000   0.0000000000
C          C       0.32776   0.61397   0.50000   0.0000000000
O          O       0.85034   0.38158   0.50000   0.0000000000
C          C       0.96775   0.52151   0.50000   0.0000000000
C          C       0.80135   0.37513   0.50000   0.0000000000
C          C       0.75567   0.32822   0.50000   0.0000000000
C          C       0.70842   0.32776   0.50000   0.0000000000
O          O       0.52587   0.13892   0.50000   0.0000000000
C          C       0.54839   0.02151   0.50000   0.0000000000
C          C       0.56841   0.18791   0.50000   0.0000000000
C          C       0.56718   0.23359   0.50000   0.0000000000
C          C       0.61397   0.28084   0.50000   0.0000000000
O          O       0.60768   0.46339   0.50000   0.0000000000
C          C       0.46775   0.44087   0.50000   0.0000000000
C          C       0.61413   0.42085   0.50000   0.0000000000
C          C       0.66104   0.42208   0.50000   0.0000000000
C          C       0.66150   0.37529   0.50000   0.0000000000
C          C       0.94080   0.46772   0.50000   0.0000000000
C          C       0.52155   0.46772   0.50000   0.0000000000
C          C       0.52155   0.04846   0.50000   0.0000000000
C          C       0.04846   0.52155   0.50000   0.0000000000
C          C       0.46772   0.52155   0.50000   0.0000000000
C          C       0.46772   0.94080   0.50000   0.0000000000
H          H       0.44734   0.04184   0.50000   0.0000000000
H          H       0.69585   0.23265   0.50000   0.0000000000
H          H       0.94742   0.40013   0.50000   0.0000000000
H          H       0.75661   0.45783   0.50000   0.0000000000
H          H       0.58913   0.54192   0.50000   0.0000000000
H          H       0.53144   0.29341   0.50000   0.0000000000
H          H       0.54192   0.94742   0.50000   0.0000000000
H          H       0.29341   0.75661   0.50000   0.0000000000
H          H       0.04184   0.58913   0.50000   0.0000000000
H          H       0.23265   0.53144   0.50000   0.0000000000
H          H       0.40013   0.44734   0.50000   0.0000000000
H          H       0.45783   0.69585   0.50000   0.0000000000
H          H       0.04184   0.44734   0.50000   0.0000000000
H          H       0.23265   0.69585   0.50000   0.0000000000
H          H       0.40013   0.94742   0.50000   0.0000000000
H          H       0.45783   0.75661   0.50000   0.0000000000
H          H       0.54192   0.58913   0.50000   0.0000000000
H          H       0.29341   0.53144   0.50000   0.0000000000
H          H       0.94742   0.54192   0.50000   0.0000000000
H          H       0.75661   0.29341   0.50000   0.0000000000
H          H       0.58913   0.04184   0.50000   0.0000000000
H          H       0.53144   0.23265   0.50000   0.0000000000
H          H       0.44734   0.40013   0.50000   0.0000000000
H          H       0.69585   0.45783   0.50000   0.0000000000
