data_COF-8
_audit_creation_date              0000-00-00
_audit_creation_method            'LanYouShi'
_symmetry_space_group_name_H-M    'P1'
_cell_length_a                    22.7331009
_cell_length_b                    22.7331009
_cell_length_c                    3.4763999
_cell_angle_alpha                 90.0000000
_cell_angle_beta                  90.0000000
_cell_angle_gamma                 120.0000000
loop_
_atom_site_label
_atom_site_type_symbol
_atom_site_fract_x
_atom_site_fract_y
_atom_site_fract_z
_atom_site_U_iso_or_equiv
_atom_site_adp_type
_atom_site_occupancy
        B1          B  0.4793050  0.9586100  0.5000000    0.00000       Uiso       1.00
        B2          B  0.0413900  0.5206950  0.5000000    0.00000       Uiso       1.00
        B3          B  0.4793050  0.5206950  0.5000000    0.00000       Uiso       1.00
        O1          O  0.0820200  0.4871400  0.5000000    0.00000       Uiso       1.00
        C1          C  0.9247499  0.4062200  0.5000000    0.00000       Uiso       1.00
        C2          C  0.8541800  0.3703100  0.5000000    0.00000       Uiso       1.00
        C3          C  0.2704600  0.6036200  0.5000000    0.00000       Uiso       1.00
        C4          C  0.1467300  0.5434299  0.5000000    0.00000       Uiso       1.00
        C5          C  0.2067700  0.5417899  0.5000000    0.00000       Uiso       1.00
        H1          H  0.2011400  0.4919900  0.5000000    0.00000       Uiso       1.00
        H2          H  0.9519900  0.3784700  0.5000000    0.00000       Uiso       1.00
        H3          H  0.8280299  0.3153700  0.5000000    0.00000       Uiso       1.00
        O2          O  0.5128599  0.5948800  0.5000000    0.00000       Uiso       1.00
        C6          C  0.5937800  0.5185300  0.5000000    0.00000       Uiso       1.00
        C7          C  0.6296900  0.4838700  0.5000000    0.00000       Uiso       1.00
        C8          C  0.3963800  0.6668400  0.5000000    0.00000       Uiso       1.00
        C9          C  0.4565700  0.6033000  0.5000000    0.00000       Uiso       1.00
       C10          C  0.4582100  0.6649799  0.5000000    0.00000       Uiso       1.00
        H4          H  0.5080100  0.7091500  0.5000000    0.00000       Uiso       1.00
        H5          H  0.6215299  0.5735199  0.5000000    0.00000       Uiso       1.00
        H6          H  0.6846300  0.5126600  0.5000000    0.00000       Uiso       1.00
        O3          O  0.4051200  0.9179800  0.5000000    0.00000       Uiso       1.00
       C11          C  0.4814700  0.0752500  0.5000000    0.00000       Uiso       1.00
       C12          C  0.5161300  0.1458200  0.5000000    0.00000       Uiso       1.00
       C13          C  0.3331600  0.7295400  0.5000000    0.00000       Uiso       1.00
       C14          C  0.3967000  0.8532700  0.5000000    0.00000       Uiso       1.00
       C15          C  0.3350200  0.7932299  0.5000000    0.00000       Uiso       1.00
        H7          H  0.2908500  0.7988600  0.5000000    0.00000       Uiso       1.00
        H8          H  0.4264800  0.0480100  0.5000000    0.00000       Uiso       1.00
        H9          H  0.4873400  0.1719700  0.5000000    0.00000       Uiso       1.00
        O4          O  0.5128599  0.9179800  0.5000000    0.00000       Uiso       1.00
       C16          C  0.5937800  0.0752500  0.5000000    0.00000       Uiso       1.00
       C17          C  0.6296900  0.1458200  0.5000000    0.00000       Uiso       1.00
       C18          C  0.3963800  0.7295400  0.5000000    0.00000       Uiso       1.00
       C19          C  0.4565700  0.8532700  0.5000000    0.00000       Uiso       1.00
       C20          C  0.4582100  0.7932299  0.5000000    0.00000       Uiso       1.00
       H10          H  0.5080100  0.7988600  0.5000000    0.00000       Uiso       1.00
       H11          H  0.6215299  0.0480100  0.5000000    0.00000       Uiso       1.00
       H12          H  0.6846300  0.1719700  0.5000000    0.00000       Uiso       1.00
        O5          O  0.4051200  0.4871400  0.5000000    0.00000       Uiso       1.00
       C21          C  0.4814700  0.4062200  0.5000000    0.00000       Uiso       1.00
       C22          C  0.5161300  0.3703100  0.5000000    0.00000       Uiso       1.00
       C23          C  0.3331600  0.6036200  0.5000000    0.00000       Uiso       1.00
       C24          C  0.3966999  0.5434299  0.5000000    0.00000       Uiso       1.00
       C25          C  0.3350200  0.5417899  0.5000000    0.00000       Uiso       1.00
       H13          H  0.2908500  0.4919900  0.5000000    0.00000       Uiso       1.00
       H14          H  0.4264800  0.3784700  0.5000000    0.00000       Uiso       1.00
       H15          H  0.4873400  0.3153700  0.5000000    0.00000       Uiso       1.00
        O6          O  0.0820200  0.5948800  0.5000000    0.00000       Uiso       1.00
       C26          C  0.9247499  0.5185300  0.5000000    0.00000       Uiso       1.00
       C27          C  0.8541799  0.4838700  0.5000000    0.00000       Uiso       1.00
       C28          C  0.2704600  0.6668400  0.5000000    0.00000       Uiso       1.00
       C29          C  0.1467300  0.6033000  0.5000000    0.00000       Uiso       1.00
       C30          C  0.2067700  0.6649799  0.5000000    0.00000       Uiso       1.00
       H16          H  0.2011400  0.7091500  0.5000000    0.00000       Uiso       1.00
       H17          H  0.9519899  0.5735199  0.5000000    0.00000       Uiso       1.00
       H18          H  0.8280300  0.5126600  0.5000000    0.00000       Uiso       1.00
       C31          C  0.6309200  0.2618400  0.5000000    0.00000       Uiso       1.00
       C32          C  0.5188850  0.0377700  0.5000000    0.00000       Uiso       1.00
       C33          C  0.5926250  0.1852500  0.5000000    0.00000       Uiso       1.00
       C34          C  0.7381600  0.3690800  0.5000000    0.00000       Uiso       1.00
       C35          C  0.9622300  0.4811150  0.5000000    0.00000       Uiso       1.00
       C36          C  0.8147500  0.4073750  0.5000000    0.00000       Uiso       1.00
       C37          C  0.6309200  0.3690800  0.5000000    0.00000       Uiso       1.00
       C38          C  0.5188850  0.4811150  0.5000000    0.00000       Uiso       1.00
       C39          C  0.5926250  0.4073750  0.5000000    0.00000       Uiso       1.00
       C40          C  0.5959600  0.2979800  0.5000000    0.00000       Uiso       1.00
       C41          C  0.7020200  0.2979800  0.5000000    0.00000       Uiso       1.00
       C42          C  0.7020200  0.4040399  0.5000000    0.00000       Uiso       1.00
       H19          H  0.7299542  0.2709579  0.5000000    0.00000       Uiso       1.00
       H20          H  0.7290421  0.4589963  0.5000000    0.00000       Uiso       1.00
       H21          H  0.5410036  0.2700458  0.5000000    0.00000       Uiso       1.00
