data_COF-AA-H
_audit_creation_date              0000-00-00
_audit_creation_method            'LanYouShi'
_symmetry_space_group_name_H-M    'P1'
_cell_length_a                    38.0000000
_cell_length_b                    38.0000000
_cell_length_c                    4.5999999
_cell_angle_alpha                 90.0000000
_cell_angle_beta                  90.0000000
_cell_angle_gamma                 120.0000000
loop_
_atom_site_label
_atom_site_type_symbol
_atom_site_fract_x
_atom_site_fract_y
_atom_site_fract_z
_atom_site_U_iso_or_equiv
_atom_site_adp_type
_atom_site_occupancy
        C1          C  0.5495800  0.9671500  0.7300500    0.00000       Uiso       1.00
        C2          C  0.5563800  0.9343000  0.7276900    0.00000       Uiso       1.00
        C3          C  0.5193300  0.9109000  0.2784900    0.00000       Uiso       1.00
        C4          C  0.5124700  0.9437100  0.2800800    0.00000       Uiso       1.00
        C5          C  0.5158100  0.6117300  0.2716700    0.00000       Uiso       1.00
        C6          C  0.5226900  0.5789200  0.2730800    0.00000       Uiso       1.00
        C7          C  0.4888000  0.5575200  0.7361700    0.00000       Uiso       1.00
        C8          C  0.4819800  0.5903600  0.7339700    0.00000       Uiso       1.00
        H1          H  0.5611100  0.9888100  0.9077699    0.00000       Uiso       1.00
        H2          H  0.5730100  0.9303401  0.9042800    0.00000       Uiso       1.00
        H3          H  0.5070500  0.8886800  0.1045800    0.00000       Uiso       1.00
        H4          H  0.4950300  0.9470700  0.1065500    0.00000       Uiso       1.00
        H5          H  0.5268500  0.6331600  0.0925300    0.00000       Uiso       1.00
        H6          H  0.5388800  0.5747800  0.0942500    0.00000       Uiso       1.00
        H7          H  0.4785400  0.5366600  0.9188300    0.00000       Uiso       1.00
        H8          H  0.4666200  0.5951100  0.9155600    0.00000       Uiso       1.00
        C9          C  0.0328500  0.5824300  0.7300500    0.00000       Uiso       1.00
       C10          C  0.0657000  0.6220800  0.7276900    0.00000       Uiso       1.00
       C11          C  0.0891000  0.6084300  0.2784900    0.00000       Uiso       1.00
       C12          C  0.0562900  0.5687600  0.2800800    0.00000       Uiso       1.00
       C13          C  0.3882700  0.9040800  0.2716700    0.00000       Uiso       1.00
       C14          C  0.4210800  0.9437700  0.2730800    0.00000       Uiso       1.00
       C15          C  0.4424800  0.9312800  0.7361700    0.00000       Uiso       1.00
       C16          C  0.4096400  0.8916200  0.7339700    0.00000       Uiso       1.00
        H9          H  0.0111900  0.5723000  0.9077699    0.00000       Uiso       1.00
       H10          H  0.0696600  0.6426700  0.9042800    0.00000       Uiso       1.00
       H11          H  0.1113200  0.6183700  0.1045800    0.00000       Uiso       1.00
       H12          H  0.0529300  0.5479600  0.1065500    0.00000       Uiso       1.00
       H13          H  0.3668400  0.8936900  0.0925300    0.00000       Uiso       1.00
       H14          H  0.4252200  0.9641000  0.0942500    0.00000       Uiso       1.00
       H15          H  0.4633400  0.9418800  0.9188300    0.00000       Uiso       1.00
       H16          H  0.4048900  0.8715100  0.9155600    0.00000       Uiso       1.00
       C17          C  0.4175700  0.4504200  0.7300500    0.00000       Uiso       1.00
       C18          C  0.3779200  0.4436200  0.7276900    0.00000       Uiso       1.00
       C19          C  0.3915700  0.4806700  0.2784900    0.00000       Uiso       1.00
       C20          C  0.4312400  0.4875300  0.2800800    0.00000       Uiso       1.00
       C21          C  0.0959200  0.4841900  0.2716700    0.00000       Uiso       1.00
       C22          C  0.0562300  0.4773100  0.2730800    0.00000       Uiso       1.00
       C23          C  0.0687200  0.5112000  0.7361700    0.00000       Uiso       1.00
       C24          C  0.1083800  0.5180200  0.7339700    0.00000       Uiso       1.00
       H17          H  0.4277000  0.4388900  0.9077699    0.00000       Uiso       1.00
       H18          H  0.3573300  0.4269900  0.9042800    0.00000       Uiso       1.00
       H19          H  0.3816300  0.4929500  0.1045800    0.00000       Uiso       1.00
       H20          H  0.4520400  0.5049700  0.1065500    0.00000       Uiso       1.00
       H21          H  0.1063100  0.4731500  0.0925300    0.00000       Uiso       1.00
       H22          H  0.0359000  0.4611200  0.0942500    0.00000       Uiso       1.00
       H23          H  0.0581200  0.5214600  0.9188300    0.00000       Uiso       1.00
       H24          H  0.1284900  0.5333800  0.9155600    0.00000       Uiso       1.00
       C25          C  0.4504200  0.0328500  0.7300500    0.00000       Uiso       1.00
       C26          C  0.4436200  0.0657000  0.7276900    0.00000       Uiso       1.00
       C27          C  0.4806700  0.0891000  0.2784900    0.00000       Uiso       1.00
       C28          C  0.4875300  0.0562900  0.2800800    0.00000       Uiso       1.00
       C29          C  0.4841900  0.3882700  0.2716700    0.00000       Uiso       1.00
       C30          C  0.4773100  0.4210800  0.2730800    0.00000       Uiso       1.00
       C31          C  0.5112000  0.4424800  0.7361700    0.00000       Uiso       1.00
       C32          C  0.5180200  0.4096400  0.7339700    0.00000       Uiso       1.00
       H25          H  0.4388900  0.0111900  0.9077699    0.00000       Uiso       1.00
       H26          H  0.4269900  0.0696600  0.9042800    0.00000       Uiso       1.00
       H27          H  0.4929500  0.1113200  0.1045800    0.00000       Uiso       1.00
       H28          H  0.5049700  0.0529300  0.1065500    0.00000       Uiso       1.00
       H29          H  0.4731500  0.3668400  0.0925300    0.00000       Uiso       1.00
       H30          H  0.4611200  0.4252200  0.0942500    0.00000       Uiso       1.00
       H31          H  0.5214600  0.4633400  0.9188300    0.00000       Uiso       1.00
       H32          H  0.5333800  0.4048900  0.9155600    0.00000       Uiso       1.00
       C33          C  0.9671500  0.4175700  0.7300500    0.00000       Uiso       1.00
       C34          C  0.9343000  0.3779200  0.7276900    0.00000       Uiso       1.00
       C35          C  0.9109000  0.3915700  0.2784900    0.00000       Uiso       1.00
       C36          C  0.9437100  0.4312400  0.2800800    0.00000       Uiso       1.00
       C37          C  0.6117300  0.0959200  0.2716700    0.00000       Uiso       1.00
       C38          C  0.5789200  0.0562300  0.2730800    0.00000       Uiso       1.00
       C39          C  0.5575200  0.0687200  0.7361700    0.00000       Uiso       1.00
       C40          C  0.5903600  0.1083800  0.7339700    0.00000       Uiso       1.00
       H33          H  0.9888100  0.4277000  0.9077699    0.00000       Uiso       1.00
       H34          H  0.9303400  0.3573300  0.9042800    0.00000       Uiso       1.00
       H35          H  0.8886800  0.3816300  0.1045800    0.00000       Uiso       1.00
       H36          H  0.9470700  0.4520400  0.1065500    0.00000       Uiso       1.00
       H37          H  0.6331600  0.1063100  0.0925300    0.00000       Uiso       1.00
       H38          H  0.5747800  0.0359000  0.0942500    0.00000       Uiso       1.00
       H39          H  0.5366600  0.0581200  0.9188300    0.00000       Uiso       1.00
       H40          H  0.5951100  0.1284900  0.9155600    0.00000       Uiso       1.00
       C41          C  0.5824300  0.5495800  0.7300500    0.00000       Uiso       1.00
       C42          C  0.6220800  0.5563800  0.7276900    0.00000       Uiso       1.00
       C43          C  0.6084300  0.5193300  0.2784900    0.00000       Uiso       1.00
       C44          C  0.5687600  0.5124700  0.2800800    0.00000       Uiso       1.00
       C45          C  0.9040800  0.5158100  0.2716700    0.00000       Uiso       1.00
       C46          C  0.9437700  0.5226900  0.2730800    0.00000       Uiso       1.00
       C47          C  0.9312800  0.4888000  0.7361700    0.00000       Uiso       1.00
       C48          C  0.8916200  0.4819800  0.7339700    0.00000       Uiso       1.00
       H41          H  0.5723000  0.5611100  0.9077699    0.00000       Uiso       1.00
       H42          H  0.6426700  0.5730100  0.9042800    0.00000       Uiso       1.00
       H43          H  0.6183700  0.5070500  0.1045800    0.00000       Uiso       1.00
       H44          H  0.5479600  0.4950300  0.1065500    0.00000       Uiso       1.00
       H45          H  0.8936900  0.5268500  0.0925300    0.00000       Uiso       1.00
       H46          H  0.9640999  0.5388800  0.0942500    0.00000       Uiso       1.00
       H47          H  0.9418800  0.4785400  0.9188300    0.00000       Uiso       1.00
       H48          H  0.8715100  0.4666200  0.9155600    0.00000       Uiso       1.00
       C49          C  0.4722800  0.0281000  0.5000000    0.00000       Uiso       1.00
       C50          C  0.4582000  0.0937100  0.5000000    0.00000       Uiso       1.00
        N1          N  0.4518100  0.1269300  0.5000000    0.00000       Uiso       1.00
       C51          C  0.4828800  0.1632500  0.5000000    0.00000       Uiso       1.00
       C52          C  0.4815700  0.2014400  0.5000000    0.00000       Uiso       1.00
       C53          C  0.5183700  0.2381400  0.5000000    0.00000       Uiso       1.00
       C54          C  0.5183900  0.2749300  0.5000000    0.00000       Uiso       1.00
       C55          C  0.4816900  0.2749300  0.5000000    0.00000       Uiso       1.00
       C56          C  0.4449000  0.2382300  0.5000000    0.00000       Uiso       1.00
       C57          C  0.4448800  0.2014400  0.5000000    0.00000       Uiso       1.00
       C58          C  0.4803800  0.3131300  0.5000000    0.00000       Uiso       1.00
        N2          N  0.5114600  0.3494400  0.5000000    0.00000       Uiso       1.00
       C59          C  0.5050600  0.3826700  0.5000000    0.00000       Uiso       1.00
       C60          C  0.4909500  0.4482500  0.5000000    0.00000       Uiso       1.00
       C61          C  0.4796500  0.9937299  0.5000000    0.00000       Uiso       1.00
       H49          H  0.5135500  0.1660000  0.5000000    0.00000       Uiso       1.00
       H50          H  0.5471000  0.2385200  0.5000000    0.00000       Uiso       1.00
       H51          H  0.5470600  0.3033400  0.5000000    0.00000       Uiso       1.00
       H52          H  0.4161700  0.2378600  0.5000000    0.00000       Uiso       1.00
       H53          H  0.4162100  0.1730400  0.5000000    0.00000       Uiso       1.00
       H54          H  0.4497200  0.3095500  0.5000000    0.00000       Uiso       1.00
       C62          C  0.9719000  0.4441800  0.5000000    0.00000       Uiso       1.00
       C63          C  0.9062900  0.3644900  0.5000000    0.00000       Uiso       1.00
        N3          N  0.8730700  0.3248800  0.5000000    0.00000       Uiso       1.00
       C64          C  0.8367500  0.3196300  0.5000000    0.00000       Uiso       1.00
       C65          C  0.7985600  0.2801300  0.5000000    0.00000       Uiso       1.00
       C66          C  0.7618600  0.2802300  0.5000000    0.00000       Uiso       1.00
       C67          C  0.7250700  0.2434600  0.5000000    0.00000       Uiso       1.00
       C68          C  0.7250700  0.2067600  0.5000000    0.00000       Uiso       1.00
       C69          C  0.7617700  0.2066700  0.5000000    0.00000       Uiso       1.00
       C70          C  0.7985600  0.2434400  0.5000000    0.00000       Uiso       1.00
       C71          C  0.6868700  0.1672500  0.5000000    0.00000       Uiso       1.00
        N4          N  0.6505600  0.1620200  0.5000000    0.00000       Uiso       1.00
       C72          C  0.6173300  0.1223900  0.5000000    0.00000       Uiso       1.00
       C73          C  0.5517500  0.0427000  0.5000000    0.00000       Uiso       1.00
       C74          C  0.0062700  0.4859200  0.5000000    0.00000       Uiso       1.00
       H55          H  0.8340000  0.3475500  0.5000000    0.00000       Uiso       1.00
       H56          H  0.7614800  0.3085800  0.5000000    0.00000       Uiso       1.00
       H57          H  0.6966600  0.2437200  0.5000000    0.00000       Uiso       1.00
       H58          H  0.7621400  0.1783100  0.5000000    0.00000       Uiso       1.00
       H59          H  0.8269600  0.2431700  0.5000000    0.00000       Uiso       1.00
       H60          H  0.6904500  0.1401700  0.5000000    0.00000       Uiso       1.00
       C75          C  0.5558200  0.5277200  0.5000000    0.00000       Uiso       1.00
       C76          C  0.6355100  0.5418000  0.5000000    0.00000       Uiso       1.00
        N5          N  0.6751200  0.5481900  0.5000000    0.00000       Uiso       1.00
       C77          C  0.6803700  0.5171200  0.5000000    0.00000       Uiso       1.00
       C78          C  0.7198700  0.5184300  0.5000000    0.00000       Uiso       1.00
       C79          C  0.7197700  0.4816300  0.5000000    0.00000       Uiso       1.00
       C80          C  0.7565400  0.4816100  0.5000000    0.00000       Uiso       1.00
       C81          C  0.7932400  0.5183100  0.5000000    0.00000       Uiso       1.00
       C82          C  0.7933300  0.5551000  0.5000000    0.00000       Uiso       1.00
       C83          C  0.7565600  0.5551200  0.5000000    0.00000       Uiso       1.00
       C84          C  0.8327500  0.5196200  0.5000000    0.00000       Uiso       1.00
        N6          N  0.8379800  0.4885400  0.5000000    0.00000       Uiso       1.00
       C85          C  0.8776099  0.4949400  0.5000000    0.00000       Uiso       1.00
       C86          C  0.9573000  0.5090500  0.5000000    0.00000       Uiso       1.00
       C87          C  0.5140800  0.5203500  0.5000000    0.00000       Uiso       1.00
       H61          H  0.6524500  0.4864500  0.5000000    0.00000       Uiso       1.00
       H62          H  0.6914200  0.4529000  0.5000000    0.00000       Uiso       1.00
       H63          H  0.7562800  0.4529400  0.5000000    0.00000       Uiso       1.00
       H64          H  0.8216900  0.5838300  0.5000000    0.00000       Uiso       1.00
       H65          H  0.7568300  0.5837900  0.5000000    0.00000       Uiso       1.00
       H66          H  0.8598300  0.5502800  0.5000000    0.00000       Uiso       1.00
       C88          C  0.5277200  0.9719000  0.5000000    0.00000       Uiso       1.00
       C89          C  0.5418000  0.9062900  0.5000000    0.00000       Uiso       1.00
        N7          N  0.5481900  0.8730700  0.5000000    0.00000       Uiso       1.00
       C90          C  0.5171200  0.8367500  0.5000000    0.00000       Uiso       1.00
       C91          C  0.5184300  0.7985600  0.5000000    0.00000       Uiso       1.00
       C92          C  0.4816300  0.7618600  0.5000000    0.00000       Uiso       1.00
       C93          C  0.4816100  0.7250700  0.5000000    0.00000       Uiso       1.00
       C94          C  0.5183100  0.7250700  0.5000000    0.00000       Uiso       1.00
       C95          C  0.5551000  0.7617700  0.5000000    0.00000       Uiso       1.00
       C96          C  0.5551200  0.7985600  0.5000000    0.00000       Uiso       1.00
       C97          C  0.5196200  0.6868700  0.5000000    0.00000       Uiso       1.00
        N8          N  0.4885400  0.6505600  0.5000000    0.00000       Uiso       1.00
       C98          C  0.4949400  0.6173300  0.5000000    0.00000       Uiso       1.00
       C99          C  0.5090500  0.5517500  0.5000000    0.00000       Uiso       1.00
      C100          C  0.5203500  0.0062700  0.5000000    0.00000       Uiso       1.00
       H67          H  0.4864500  0.8340000  0.5000000    0.00000       Uiso       1.00
       H68          H  0.4529000  0.7614800  0.5000000    0.00000       Uiso       1.00
       H69          H  0.4529400  0.6966600  0.5000000    0.00000       Uiso       1.00
       H70          H  0.5838300  0.7621400  0.5000000    0.00000       Uiso       1.00
       H71          H  0.5837900  0.8269600  0.5000000    0.00000       Uiso       1.00
       H72          H  0.5502800  0.6904500  0.5000000    0.00000       Uiso       1.00
      C101          C  0.0281000  0.5558200  0.5000000    0.00000       Uiso       1.00
      C102          C  0.0937100  0.6355100  0.5000000    0.00000       Uiso       1.00
        N9          N  0.1269300  0.6751200  0.5000000    0.00000       Uiso       1.00
      C103          C  0.1632500  0.6803700  0.5000000    0.00000       Uiso       1.00
      C104          C  0.2014400  0.7198700  0.5000000    0.00000       Uiso       1.00
      C105          C  0.2381400  0.7197701  0.5000000    0.00000       Uiso       1.00
      C106          C  0.2749300  0.7565400  0.5000000    0.00000       Uiso       1.00
      C107          C  0.2749300  0.7932400  0.5000000    0.00000       Uiso       1.00
      C108          C  0.2382300  0.7933300  0.5000000    0.00000       Uiso       1.00
      C109          C  0.2014400  0.7565600  0.5000000    0.00000       Uiso       1.00
      C110          C  0.3131300  0.8327500  0.5000000    0.00000       Uiso       1.00
       N10          N  0.3494400  0.8379800  0.5000000    0.00000       Uiso       1.00
      C111          C  0.3826700  0.8776100  0.5000000    0.00000       Uiso       1.00
      C112          C  0.4482500  0.9573000  0.5000000    0.00000       Uiso       1.00
      C113          C  0.9937300  0.5140800  0.5000000    0.00000       Uiso       1.00
       H73          H  0.1660000  0.6524500  0.5000000    0.00000       Uiso       1.00
       H74          H  0.2385200  0.6914200  0.5000000    0.00000       Uiso       1.00
       H75          H  0.3033400  0.7562800  0.5000000    0.00000       Uiso       1.00
       H76          H  0.2378600  0.8216900  0.5000000    0.00000       Uiso       1.00
       H77          H  0.1730400  0.7568300  0.5000000    0.00000       Uiso       1.00
       H78          H  0.3095500  0.8598300  0.5000000    0.00000       Uiso       1.00
      C114          C  0.4441800  0.4722800  0.5000000    0.00000       Uiso       1.00
      C115          C  0.3644900  0.4582000  0.5000000    0.00000       Uiso       1.00
       N11          N  0.3248800  0.4518100  0.5000000    0.00000       Uiso       1.00
      C116          C  0.3196300  0.4828800  0.5000000    0.00000       Uiso       1.00
      C117          C  0.2801300  0.4815700  0.5000000    0.00000       Uiso       1.00
      C118          C  0.2802300  0.5183700  0.5000000    0.00000       Uiso       1.00
      C119          C  0.2434600  0.5183900  0.5000000    0.00000       Uiso       1.00
      C120          C  0.2067600  0.4816900  0.5000000    0.00000       Uiso       1.00
      C121          C  0.2066700  0.4449000  0.5000000    0.00000       Uiso       1.00
      C122          C  0.2434400  0.4448800  0.5000000    0.00000       Uiso       1.00
      C123          C  0.1672500  0.4803800  0.5000000    0.00000       Uiso       1.00
       N12          N  0.1620200  0.5114600  0.5000000    0.00000       Uiso       1.00
      C124          C  0.1223900  0.5050600  0.5000000    0.00000       Uiso       1.00
      C125          C  0.0427000  0.4909500  0.5000000    0.00000       Uiso       1.00
      C126          C  0.4859200  0.4796500  0.5000000    0.00000       Uiso       1.00
       H79          H  0.3475500  0.5135500  0.5000000    0.00000       Uiso       1.00
       H80          H  0.3085800  0.5471000  0.5000000    0.00000       Uiso       1.00
       H81          H  0.2437200  0.5470600  0.5000000    0.00000       Uiso       1.00
       H82          H  0.1783100  0.4161700  0.5000000    0.00000       Uiso       1.00
       H83          H  0.2431700  0.4162100  0.5000000    0.00000       Uiso       1.00
       H84          H  0.1401700  0.4497200  0.5000000    0.00000       Uiso       1.00
