data_COF-BTA-PDA
_audit_creation_date              0000-00-00
_audit_creation_method            'LanYouShi'
_symmetry_space_group_name_H-M    'P1'
_cell_length_a                    24.1779003
_cell_length_b                    24.1779995
_cell_length_c                    3.4000001
_cell_angle_alpha                 90.0000000
_cell_angle_beta                  90.0000000
_cell_angle_gamma                 59.9999008
loop_
_atom_site_label
_atom_site_type_symbol
_atom_site_fract_x
_atom_site_fract_y
_atom_site_fract_z
_atom_site_U_iso_or_equiv
_atom_site_adp_type
_atom_site_occupancy
        C1          C  0.4107914  0.3972450  1.4637856    0.00000       Uiso       1.00
        N1          N  0.3942675  0.4662688  1.4630953    0.00000       Uiso       1.00
        C2          C  0.4467233  0.4828296  1.4662536    0.00000       Uiso       1.00
        C3          C  0.4294630  0.5533488  1.4715953    0.00000       Uiso       1.00
        C4          C  0.4827884  0.5705230  1.4769448    0.00000       Uiso       1.00
        H1          H  0.4629259  0.3576275  1.4652803    0.00000       Uiso       1.00
        H2          H  0.3773987  0.5926634  1.4718832    0.00000       Uiso       1.00
        H3          H  0.4700502  0.6227866  1.4815539    0.00000       Uiso       1.00
        C5          C  0.5892272  0.6027709  1.4769229    0.00000       Uiso       1.00
        N2          N  0.6057202  0.5337465  1.4767729    0.00000       Uiso       1.00
        C6          C  0.5532733  0.5171649  1.4752090    0.00000       Uiso       1.00
        C7          C  0.5705430  0.4466305  1.4701641    0.00000       Uiso       1.00
        C8          C  0.5172088  0.4294629  1.4651498    0.00000       Uiso       1.00
        H4          H  0.5371042  0.6424226  1.4773196    0.00000       Uiso       1.00
        H5          H  0.6225969  0.4073189  1.4694232    0.00000       Uiso       1.00
        H6          H  0.5299418  0.3772016  1.4605271    0.00000       Uiso       1.00
        C9          C  0.1920155  0.4107330  1.4581004    0.00000       Uiso       1.00
        N3          N  0.1395150  0.3942095  1.4576352    0.00000       Uiso       1.00
       C10          C  0.0704994  0.4466642  1.4616938    0.00000       Uiso       1.00
       C11          C  0.0172417  0.4294024  1.4672600    0.00000       Uiso       1.00
       C12          C  0.9467447  0.4827260  1.4735272    0.00000       Uiso       1.00
        H7          H  0.1794991  0.4628668  1.4601055    0.00000       Uiso       1.00
        H8          H  0.0299913  0.3773383  1.4670364    0.00000       Uiso       1.00
        H9          H  0.9072205  0.4699865  1.4783033    0.00000       Uiso       1.00
       C13          C  0.8080580  0.5891643  1.4753227    0.00000       Uiso       1.00
        N4          N  0.8605896  0.6056571  1.4749472    0.00000       Uiso       1.00
       C14          C  0.9296178  0.5532109  1.4724829    0.00000       Uiso       1.00
       C15          C  0.9828813  0.5704820  1.4672137    0.00000       Uiso       1.00
       C16          C  0.0533805  0.5171495  1.4612815    0.00000       Uiso       1.00
       H10          H  0.8205292  0.5370415  1.4752095    0.00000       Uiso       1.00
       H11          H  0.9701390  0.6225358  1.4669842    0.00000       Uiso       1.00
       H12          H  0.0929077  0.5298838  1.4564916    0.00000       Uiso       1.00
       C17          C  0.3973023  0.1919571  1.4642264    0.00000       Uiso       1.00
        N5          N  0.4663262  0.1394570  1.4628603    0.00000       Uiso       1.00
       C18          C  0.4828881  0.0704406  1.4662434    0.00000       Uiso       1.00
       C19          C  0.5534092  0.0171814  1.4708922    0.00000       Uiso       1.00
       C20          C  0.5705850  0.9466809  1.4764675    0.00000       Uiso       1.00
       H13          H  0.3576853  0.1794402  1.4664010    0.00000       Uiso       1.00
       H14          H  0.5927238  0.0299309  1.4705031    0.00000       Uiso       1.00
       H15          H  0.6228502  0.9071553  1.4805632    0.00000       Uiso       1.00
       C21          C  0.6028336  0.8079944  1.4769120    0.00000       Uiso       1.00
        N6          N  0.5338089  0.8605260  1.4774375    0.00000       Uiso       1.00
       C22          C  0.5172265  0.9295544  1.4756492    0.00000       Uiso       1.00
       C23          C  0.4466904  0.9828193  1.4712974    0.00000       Uiso       1.00
       C24          C  0.4295212  0.0533220  1.4660573    0.00000       Uiso       1.00
       H16          H  0.6424853  0.8204656  1.4766285    0.00000       Uiso       1.00
       H17          H  0.4073786  0.9700772  1.4712335    0.00000       Uiso       1.00
       H18          H  0.3772583  0.0928506  1.4619477    0.00000       Uiso       1.00
       C25          C  0.6300277  0.6364061  1.4766401    0.00000       Uiso       1.00
       C26          C  0.6364689  0.7335588  1.4766351    0.00000       Uiso       1.00
       C27          C  0.7336221  0.6299647  1.4758826    0.00000       Uiso       1.00
       C28          C  0.5999566  0.7032306  1.4768879    0.00000       Uiso       1.00
       C29          C  0.7032937  0.6968052  1.4761323    0.00000       Uiso       1.00
       C30          C  0.6968685  0.5998937  1.4761373    0.00000       Uiso       1.00
       H19          H  0.7202364  0.5481802  1.4759449    0.00000       Uiso       1.00
       H20          H  0.5482428  0.7315764  1.4772768    0.00000       Uiso       1.00
       H21          H  0.7316396  0.7201730  1.4759359    0.00000       Uiso       1.00
       C31          C  0.3700211  0.3635777  1.4628651    0.00000       Uiso       1.00
       C32          C  0.3636354  0.2663945  1.4630736    0.00000       Uiso       1.00
       C33          C  0.2664527  0.3699629  1.4601736    0.00000       Uiso       1.00
       C34          C  0.4001206  0.2967515  1.4638966    0.00000       Uiso       1.00
       C35          C  0.2968094  0.3031209  1.4612119    0.00000       Uiso       1.00
       C36          C  0.3031793  0.4000627  1.4610038    0.00000       Uiso       1.00
       H22          H  0.2797895  0.4517775  1.4602029    0.00000       Uiso       1.00
       H23          H  0.4518352  0.2684268  1.4653370    0.00000       Uiso       1.00
       H24          H  0.2684845  0.2797308  1.4605724    0.00000       Uiso       1.00
