data_3D-Py-COF-0P
_audit_creation_date              0000-00-00
_audit_creation_method            'LanYouShi'
_symmetry_space_group_name_H-M    'P1'
_cell_length_a                    24.8910007
_cell_length_b                    27.1821995
_cell_length_c                    32.5284004
_cell_angle_alpha                 90.0000000
_cell_angle_beta                  90.0000000
_cell_angle_gamma                 90.0000000
loop_
_atom_site_label
_atom_site_type_symbol
_atom_site_fract_x
_atom_site_fract_y
_atom_site_fract_z
_atom_site_U_iso_or_equiv
_atom_site_adp_type
_atom_site_occupancy
        H1          H  0.0000000  0.2703100  0.5914200    0.00000       Uiso       1.00
        H2          H  0.0000000  0.0981500  0.6342400    0.00000       Uiso       1.00
        H3          H  0.0000000  0.1584100  0.6836700    0.00000       Uiso       1.00
        H4          H  0.0000000  0.2504700  0.7059200    0.00000       Uiso       1.00
        H5          H  0.0000000  0.3856400  0.6217300    0.00000       Uiso       1.00
        H6          H  0.0000000  0.4650600  0.6467700    0.00000       Uiso       1.00
        H7          H  0.0000000  0.4105000  0.7719399    0.00000       Uiso       1.00
        H8          H  0.0000000  0.6734800  0.7434600    0.00000       Uiso       1.00
        C1          C  0.0000000  0.0536500  0.4616800    0.00000       Uiso       1.00
        C2          C  0.0000000  0.1068200  0.4606600    0.00000       Uiso       1.00
        C3          C  0.0000000  0.1443500  0.4227700    0.00000       Uiso       1.00
        C4          C  0.0000000  0.2319500  0.3994300    0.00000       Uiso       1.00
        C5          C  0.0000000  0.2192800  0.3581300    0.00000       Uiso       1.00
        C6          C  0.0000000  0.2589200  0.3265900    0.00000       Uiso       1.00
        N1          N  0.0000000  0.3039900  0.3398300    0.00000       Uiso       1.00
        C7          C  0.0000000  0.3507000  0.3196800    0.00000       Uiso       1.00
        C8          C  0.0000000  0.3577200  0.2771300    0.00000       Uiso       1.00
        C9          C  0.0000000  0.3913300  0.3452900    0.00000       Uiso       1.00
       C10          C  0.0000000  0.4059500  0.2611400    0.00000       Uiso       1.00
       C11          C  0.0000000  0.4388800  0.3297300    0.00000       Uiso       1.00
       C12          C  0.0000000  0.4483601  0.2870400    0.00000       Uiso       1.00
       C13          C  0.0000000  0.8033801  0.4301400    0.00000       Uiso       1.00
       C14          C  0.0000000  0.8305300  0.3483300    0.00000       Uiso       1.00
       C15          C  0.0000000  0.0252400  0.5737000    0.00000       Uiso       1.00
        H9          H  0.0000000  0.2150400  0.5408700    0.00000       Uiso       1.00
       C16          C  0.0000000  0.1331400  0.3794500    0.00000       Uiso       1.00
       H10          H  0.0000000  0.9606000  0.6032500    0.00000       Uiso       1.00
       H11          H  0.0000000  0.7296900  0.5914200    0.00000       Uiso       1.00
       H12          H  0.0000000  0.9018500  0.6342400    0.00000       Uiso       1.00
       H13          H  0.0000000  0.8415900  0.6836700    0.00000       Uiso       1.00
       H14          H  0.0000000  0.7495300  0.7059200    0.00000       Uiso       1.00
       H15          H  0.0000000  0.6143600  0.6217300    0.00000       Uiso       1.00
       H16          H  0.0000000  0.5349400  0.6467700    0.00000       Uiso       1.00
       H17          H  0.0000000  0.5895000  0.7719399    0.00000       Uiso       1.00
       H18          H  0.0000000  0.3265200  0.7434600    0.00000       Uiso       1.00
       C17          C  0.0000000  0.9463500  0.4616800    0.00000       Uiso       1.00
       C18          C  0.0000000  0.8931800  0.4606600    0.00000       Uiso       1.00
       C19          C  0.0000000  0.8556500  0.4227700    0.00000       Uiso       1.00
       C20          C  0.0000000  0.7680500  0.3994300    0.00000       Uiso       1.00
       C21          C  0.0000000  0.7807200  0.3581300    0.00000       Uiso       1.00
       C22          C  0.0000000  0.7410800  0.3265900    0.00000       Uiso       1.00
        N2          N  0.0000000  0.6960100  0.3398300    0.00000       Uiso       1.00
       C23          C  0.0000000  0.6493000  0.3196800    0.00000       Uiso       1.00
       C24          C  0.0000000  0.6422800  0.2771300    0.00000       Uiso       1.00
       C25          C  0.0000000  0.6086700  0.3452900    0.00000       Uiso       1.00
       C26          C  0.0000000  0.5940500  0.2611400    0.00000       Uiso       1.00
       C27          C  0.0000000  0.5611200  0.3297300    0.00000       Uiso       1.00
       C28          C  0.0000000  0.5516400  0.2870400    0.00000       Uiso       1.00
       C29          C  0.0000000  0.1966200  0.4301400    0.00000       Uiso       1.00
       C30          C  0.0000000  0.1694700  0.3483300    0.00000       Uiso       1.00
       C31          C  0.0000000  0.9747600  0.5737000    0.00000       Uiso       1.00
       H19          H  0.0000000  0.7849600  0.5408700    0.00000       Uiso       1.00
       C32          C  0.0000000  0.8668600  0.3794500    0.00000       Uiso       1.00
       H20          H  0.0000000  0.0394000  0.6032500    0.00000       Uiso       1.00
       H21          H  0.0000000  0.2703100  0.4085800    0.00000       Uiso       1.00
       H22          H  0.0000000  0.0981500  0.3657600    0.00000       Uiso       1.00
       H23          H  0.0000000  0.1584100  0.3163300    0.00000       Uiso       1.00
       H24          H  0.0000000  0.2504700  0.2940800    0.00000       Uiso       1.00
       H25          H  0.0000000  0.3856400  0.3782700    0.00000       Uiso       1.00
       H26          H  0.0000000  0.4650600  0.3532300    0.00000       Uiso       1.00
       H27          H  0.0000000  0.4105000  0.2280600    0.00000       Uiso       1.00
       H28          H  0.0000000  0.6734800  0.2565400    0.00000       Uiso       1.00
       C33          C  0.0000000  0.0536500  0.5383200    0.00000       Uiso       1.00
       C34          C  0.0000000  0.1068200  0.5393400    0.00000       Uiso       1.00
       C35          C  0.0000000  0.1443500  0.5772300    0.00000       Uiso       1.00
       C36          C  0.0000000  0.2319500  0.6005700    0.00000       Uiso       1.00
       C37          C  0.0000000  0.2192800  0.6418700    0.00000       Uiso       1.00
       C38          C  0.0000000  0.2589200  0.6734100    0.00000       Uiso       1.00
        N3          N  0.0000000  0.3039900  0.6601700    0.00000       Uiso       1.00
       C39          C  0.0000000  0.3507000  0.6803200    0.00000       Uiso       1.00
       C40          C  0.0000000  0.3577200  0.7228699    0.00000       Uiso       1.00
       C41          C  0.0000000  0.3913300  0.6547100    0.00000       Uiso       1.00
       C42          C  0.0000000  0.4059500  0.7388600    0.00000       Uiso       1.00
       C43          C  0.0000000  0.4388800  0.6702700    0.00000       Uiso       1.00
       C44          C  0.0000000  0.4483601  0.7129600    0.00000       Uiso       1.00
       C45          C  0.0000000  0.8033801  0.5698600    0.00000       Uiso       1.00
       C46          C  0.0000000  0.8305300  0.6516700    0.00000       Uiso       1.00
       C47          C  0.0000000  0.0252400  0.4263000    0.00000       Uiso       1.00
       H29          H  0.0000000  0.2150400  0.4591300    0.00000       Uiso       1.00
       C48          C  0.0000000  0.1331400  0.6205500    0.00000       Uiso       1.00
       H30          H  0.0000000  0.9606000  0.3967500    0.00000       Uiso       1.00
       H31          H  0.0000000  0.7296900  0.4085800    0.00000       Uiso       1.00
       H32          H  0.0000000  0.9018500  0.3657600    0.00000       Uiso       1.00
       H33          H  0.0000000  0.8415900  0.3163300    0.00000       Uiso       1.00
       H34          H  0.0000000  0.7495300  0.2940800    0.00000       Uiso       1.00
       H35          H  0.0000000  0.6143600  0.3782700    0.00000       Uiso       1.00
       H36          H  0.0000000  0.5349400  0.3532300    0.00000       Uiso       1.00
       H37          H  0.0000000  0.5895000  0.2280600    0.00000       Uiso       1.00
       H38          H  0.0000000  0.3265200  0.2565400    0.00000       Uiso       1.00
       C49          C  0.0000000  0.9463500  0.5383200    0.00000       Uiso       1.00
       C50          C  0.0000000  0.8931800  0.5393400    0.00000       Uiso       1.00
       C51          C  0.0000000  0.8556500  0.5772300    0.00000       Uiso       1.00
       C52          C  0.0000000  0.7680500  0.6005700    0.00000       Uiso       1.00
       C53          C  0.0000000  0.7807200  0.6418700    0.00000       Uiso       1.00
       C54          C  0.0000000  0.7410800  0.6734100    0.00000       Uiso       1.00
        N4          N  0.0000000  0.6960100  0.6601700    0.00000       Uiso       1.00
       C55          C  0.0000000  0.6493000  0.6803200    0.00000       Uiso       1.00
       C56          C  0.0000000  0.6422800  0.7228699    0.00000       Uiso       1.00
       C57          C  0.0000000  0.6086700  0.6547100    0.00000       Uiso       1.00
       C58          C  0.0000000  0.5940500  0.7388600    0.00000       Uiso       1.00
       C59          C  0.0000000  0.5611200  0.6702700    0.00000       Uiso       1.00
       C60          C  0.0000000  0.5516400  0.7129600    0.00000       Uiso       1.00
       C61          C  0.0000000  0.1966200  0.5698600    0.00000       Uiso       1.00
       C62          C  0.0000000  0.1694700  0.6516700    0.00000       Uiso       1.00
       C63          C  0.0000000  0.9747600  0.4263000    0.00000       Uiso       1.00
       H39          H  0.0000000  0.7849600  0.4591300    0.00000       Uiso       1.00
       C64          C  0.0000000  0.8668600  0.6205500    0.00000       Uiso       1.00
       H40          H  0.0000000  0.0394000  0.3967500    0.00000       Uiso       1.00
       H41          H  0.7400800  0.5000000  0.1253900    0.00000       Uiso       1.00
       H42          H  0.5570700  0.5000000  0.1807300    0.00000       Uiso       1.00
       H43          H  0.6293700  0.5000000  0.2256000    0.00000       Uiso       1.00
       H44          H  0.7303500  0.5000000  0.2408200    0.00000       Uiso       1.00
       H45          H  0.8739300  0.5000000  0.1525700    0.00000       Uiso       1.00
       H46          H  0.9616200  0.5000000  0.1771400    0.00000       Uiso       1.00
       H47          H  0.9031400  0.5000000  0.3025900    0.00000       Uiso       1.00
       H48          H  0.1884900  0.5000000  0.2751000    0.00000       Uiso       1.00
       C65          C  0.5496500  0.5000000  0.9547600    0.00000       Uiso       1.00
       C66          C  0.5953500  0.5000000  0.9789500    0.00000       Uiso       1.00
       C67          C  0.6014500  0.5000000  0.8794700    0.00000       Uiso       1.00
       C68          C  0.6992600  0.5000000  0.8629000    0.00000       Uiso       1.00
       C69          C  0.6904500  0.5000000  0.8207900    0.00000       Uiso       1.00
       C70          C  0.7368000  0.5000000  0.7920800    0.00000       Uiso       1.00
        N5          N  0.7848600  0.5000000  0.8076800    0.00000       Uiso       1.00
       C71          C  0.8365999  0.5000000  0.7884700    0.00000       Uiso       1.00
       C72          C  0.8450500  0.5000000  0.7459800    0.00000       Uiso       1.00
       C73          C  0.8806400  0.5000000  0.8145300    0.00000       Uiso       1.00
       C74          C  0.8977900  0.5000000  0.7304600    0.00000       Uiso       1.00
       C75          C  0.9329100  0.5000000  0.7993400    0.00000       Uiso       1.00
       C76          C  0.9436799  0.5000000  0.7566900    0.00000       Uiso       1.00
       C77          C  0.3430200  0.5000000  0.8909300    0.00000       Uiso       1.00
       C78          C  0.3623700  0.5000000  0.8071200    0.00000       Uiso       1.00
       C79          C  0.5511800  0.5000000  0.0900000    0.00000       Uiso       1.00
       H49          H  0.6338700  0.5000000  0.9679400    0.00000       Uiso       1.00
       H50          H  0.6743900  0.5000000  0.0799300    0.00000       Uiso       1.00
       C80          C  0.4053500  0.5000000  0.8352400    0.00000       Uiso       1.00
       H51          H  0.2599200  0.5000000  0.1253900    0.00000       Uiso       1.00
       H52          H  0.4429300  0.5000000  0.1807300    0.00000       Uiso       1.00
       H53          H  0.3706300  0.5000000  0.2256000    0.00000       Uiso       1.00
       H54          H  0.2696500  0.5000000  0.2408200    0.00000       Uiso       1.00
       H55          H  0.1260700  0.5000000  0.1525700    0.00000       Uiso       1.00
       H56          H  0.0383800  0.5000000  0.1771400    0.00000       Uiso       1.00
       H57          H  0.0968600  0.5000000  0.3025900    0.00000       Uiso       1.00
       H58          H  0.8115100  0.5000000  0.2751000    0.00000       Uiso       1.00
       C81          C  0.4503500  0.5000000  0.9547600    0.00000       Uiso       1.00
       C82          C  0.4046500  0.5000000  0.9789500    0.00000       Uiso       1.00
       C83          C  0.3985500  0.5000000  0.8794700    0.00000       Uiso       1.00
       C84          C  0.3007400  0.5000000  0.8629000    0.00000       Uiso       1.00
       C85          C  0.3095500  0.5000000  0.8207900    0.00000       Uiso       1.00
       C86          C  0.2632000  0.5000000  0.7920800    0.00000       Uiso       1.00
        N6          N  0.2151400  0.5000000  0.8076800    0.00000       Uiso       1.00
       C87          C  0.1634000  0.5000000  0.7884700    0.00000       Uiso       1.00
       C88          C  0.1549500  0.5000000  0.7459800    0.00000       Uiso       1.00
       C89          C  0.1193600  0.5000000  0.8145300    0.00000       Uiso       1.00
       C90          C  0.1022100  0.5000000  0.7304600    0.00000       Uiso       1.00
       C91          C  0.0670900  0.5000000  0.7993400    0.00000       Uiso       1.00
       C92          C  0.0563200  0.5000000  0.7566900    0.00000       Uiso       1.00
       C93          C  0.6569799  0.5000000  0.8909300    0.00000       Uiso       1.00
       C94          C  0.6376300  0.5000000  0.8071200    0.00000       Uiso       1.00
       C95          C  0.4488200  0.5000000  0.0900000    0.00000       Uiso       1.00
       H59          H  0.3661300  0.5000000  0.9679400    0.00000       Uiso       1.00
       H60          H  0.3256100  0.5000000  0.0799300    0.00000       Uiso       1.00
       C96          C  0.5946500  0.5000000  0.8352400    0.00000       Uiso       1.00
       H61          H  0.2599200  0.5000000  0.8746100    0.00000       Uiso       1.00
       H62          H  0.4429300  0.5000000  0.8192700    0.00000       Uiso       1.00
       H63          H  0.3706300  0.5000000  0.7744000    0.00000       Uiso       1.00
       H64          H  0.2696500  0.5000000  0.7591799    0.00000       Uiso       1.00
       H65          H  0.1260700  0.5000000  0.8474300    0.00000       Uiso       1.00
       H66          H  0.0383800  0.5000000  0.8228600    0.00000       Uiso       1.00
       H67          H  0.0968600  0.5000000  0.6974100    0.00000       Uiso       1.00
       H68          H  0.8115100  0.5000000  0.7249000    0.00000       Uiso       1.00
       C97          C  0.4503500  0.5000000  0.0452400    0.00000       Uiso       1.00
       C98          C  0.4046500  0.5000000  0.0210500    0.00000       Uiso       1.00
       C99          C  0.3985500  0.5000000  0.1205300    0.00000       Uiso       1.00
      C100          C  0.3007400  0.5000000  0.1371000    0.00000       Uiso       1.00
      C101          C  0.3095500  0.5000000  0.1792100    0.00000       Uiso       1.00
      C102          C  0.2632000  0.5000000  0.2079200    0.00000       Uiso       1.00
        N7          N  0.2151400  0.5000000  0.1923200    0.00000       Uiso       1.00
      C103          C  0.1634000  0.5000000  0.2115300    0.00000       Uiso       1.00
      C104          C  0.1549500  0.5000000  0.2540200    0.00000       Uiso       1.00
      C105          C  0.1193600  0.5000000  0.1854700    0.00000       Uiso       1.00
      C106          C  0.1022100  0.5000000  0.2695400    0.00000       Uiso       1.00
      C107          C  0.0670900  0.5000000  0.2006600    0.00000       Uiso       1.00
      C108          C  0.0563200  0.5000000  0.2433100    0.00000       Uiso       1.00
      C109          C  0.6569799  0.5000000  0.1090700    0.00000       Uiso       1.00
      C110          C  0.6376300  0.5000000  0.1928800    0.00000       Uiso       1.00
      C111          C  0.4488200  0.5000000  0.9100000    0.00000       Uiso       1.00
       H69          H  0.3661300  0.5000000  0.0320600    0.00000       Uiso       1.00
       H70          H  0.3256100  0.5000000  0.9200700    0.00000       Uiso       1.00
      C112          C  0.5946500  0.5000000  0.1647600    0.00000       Uiso       1.00
       H71          H  0.7400800  0.5000000  0.8746100    0.00000       Uiso       1.00
       H72          H  0.5570700  0.5000000  0.8192700    0.00000       Uiso       1.00
       H73          H  0.6293700  0.5000000  0.7744000    0.00000       Uiso       1.00
       H74          H  0.7303500  0.5000000  0.7591799    0.00000       Uiso       1.00
       H75          H  0.8739300  0.5000000  0.8474300    0.00000       Uiso       1.00
       H76          H  0.9616200  0.5000000  0.8228600    0.00000       Uiso       1.00
       H77          H  0.9031400  0.5000000  0.6974100    0.00000       Uiso       1.00
       H78          H  0.1884900  0.5000000  0.7249000    0.00000       Uiso       1.00
      C113          C  0.5496500  0.5000000  0.0452400    0.00000       Uiso       1.00
      C114          C  0.5953500  0.5000000  0.0210500    0.00000       Uiso       1.00
      C115          C  0.6014500  0.5000000  0.1205300    0.00000       Uiso       1.00
      C116          C  0.6992600  0.5000000  0.1371000    0.00000       Uiso       1.00
      C117          C  0.6904500  0.5000000  0.1792100    0.00000       Uiso       1.00
      C118          C  0.7368000  0.5000000  0.2079200    0.00000       Uiso       1.00
        N8          N  0.7848600  0.5000000  0.1923200    0.00000       Uiso       1.00
      C119          C  0.8365999  0.5000000  0.2115300    0.00000       Uiso       1.00
      C120          C  0.8450500  0.5000000  0.2540200    0.00000       Uiso       1.00
      C121          C  0.8806400  0.5000000  0.1854700    0.00000       Uiso       1.00
      C122          C  0.8977900  0.5000000  0.2695400    0.00000       Uiso       1.00
      C123          C  0.9329100  0.5000000  0.2006600    0.00000       Uiso       1.00
      C124          C  0.9436799  0.5000000  0.2433100    0.00000       Uiso       1.00
      C125          C  0.3430200  0.5000000  0.1090700    0.00000       Uiso       1.00
      C126          C  0.3623700  0.5000000  0.1928800    0.00000       Uiso       1.00
      C127          C  0.5511800  0.5000000  0.9100000    0.00000       Uiso       1.00
       H79          H  0.6338700  0.5000000  0.0320600    0.00000       Uiso       1.00
       H80          H  0.6743900  0.5000000  0.9200700    0.00000       Uiso       1.00
      C128          C  0.4053500  0.5000000  0.1647600    0.00000       Uiso       1.00
      C129          C  0.0000000  0.5000000  0.7348899    0.00000       Uiso       1.00
      C130          C  0.0000000  0.5000000  0.2651100    0.00000       Uiso       1.00
      C131          C  0.5000000  0.5000000  0.0228100    0.00000       Uiso       1.00
      C132          C  0.5000000  0.5000000  0.8912600    0.00000       Uiso       1.00
       H81          H  0.5000000  0.5000000  0.8598900    0.00000       Uiso       1.00
      C133          C  0.5000000  0.5000000  0.9771900    0.00000       Uiso       1.00
      C134          C  0.5000000  0.5000000  0.1087400    0.00000       Uiso       1.00
       H82          H  0.5000000  0.5000000  0.1401100    0.00000       Uiso       1.00
      C135          C  0.0000000  0.9729900  0.5000000    0.00000       Uiso       1.00
      C136          C  0.0000000  0.8715701  0.5000000    0.00000       Uiso       1.00
       H83          H  0.0000000  0.8349400  0.5000000    0.00000       Uiso       1.00
      C137          C  0.0000000  0.0270100  0.5000000    0.00000       Uiso       1.00
      C138          C  0.0000000  0.1284300  0.5000000    0.00000       Uiso       1.00
       H84          H  0.0000000  0.1650600  0.5000000    0.00000       Uiso       1.00
