data_COF-JLU3
_audit_creation_date              0000-00-00
_audit_creation_method            'LanYouShi'
_symmetry_space_group_name_H-M    'P1'
_cell_length_a                    28.8679008
_cell_length_b                    6.8000002
_cell_length_c                    25.7479992
_cell_angle_alpha                 90.0000000
_cell_angle_beta                  63.5294991
_cell_angle_gamma                 90.0000000
loop_
_atom_site_label
_atom_site_type_symbol
_atom_site_fract_x
_atom_site_fract_y
_atom_site_fract_z
_atom_site_U_iso_or_equiv
_atom_site_adp_type
_atom_site_occupancy
        N1          N  0.5208210  0.7352941  0.5046939    0.00000       Uiso       1.00
        N2          N  0.4791790  0.7352941  0.4953062    0.00000       Uiso       1.00
        C1          C  0.5707473  0.7352941  0.4626674    0.00000       Uiso       1.00
        C2          C  0.4292527  0.7352941  0.5373327    0.00000       Uiso       1.00
        H1          H  0.5805251  0.7352942  0.4192121    0.00000       Uiso       1.00
        H2          H  0.4194748  0.7352942  0.5807880    0.00000       Uiso       1.00
        N1          N  0.4955643  0.6444299  0.9768435    0.00000       Uiso       1.00
        N2          N  0.5044356  0.6444299  0.0231565    0.00000       Uiso       1.00
        C1          C  0.5326788  0.6444299  0.9207444    0.00000       Uiso       1.00
        C2          C  0.4673211  0.6444299  0.0792556    0.00000       Uiso       1.00
        H1          H  0.5715156  0.6444299  0.9093775    0.00000       Uiso       1.00
        H2          H  0.4284843  0.6444299  0.0906226    0.00000       Uiso       1.00
        N1          N  0.9800974  0.7108935  0.5262429    0.00000       Uiso       1.00
        N2          N  0.0199026  0.7108935  0.4737571    0.00000       Uiso       1.00
        C1          C  0.9292654  0.7108935  0.5375318    0.00000       Uiso       1.00
        C2          C  0.0707345  0.7108935  0.4624682    0.00000       Uiso       1.00
        H1          H  0.9172545  0.7108935  0.5056048    0.00000       Uiso       1.00
        H2          H  0.0827454  0.7108935  0.4943953    0.00000       Uiso       1.00
        C7          C  0.4766327  0.6682390  0.8028900    0.00000       Uiso       1.00
        C8          C  0.5275054  0.6783335  0.7464408    0.00000       Uiso       1.00
        C7          C  0.5233672  0.6682390  0.1971100    0.00000       Uiso       1.00
        C8          C  0.4724946  0.6783335  0.2535593    0.00000       Uiso       1.00
        H7          H  0.5263807  0.6867412  0.7028133    0.00000       Uiso       1.00
        H7          H  0.4736192  0.6867412  0.2971867    0.00000       Uiso       1.00
        C9          C  0.8302752  0.6887489  0.7074547    0.00000       Uiso       1.00
       C10          C  0.7781169  0.6869055  0.7046450    0.00000       Uiso       1.00
        C9          C  0.1697248  0.6887489  0.2925453    0.00000       Uiso       1.00
       C10          C  0.2218831  0.6869055  0.2953550    0.00000       Uiso       1.00
        H8          H  0.7403716  0.6802732  0.7463633    0.00000       Uiso       1.00
        H8          H  0.2596284  0.6802732  0.2536367    0.00000       Uiso       1.00
       C11          C  0.7241148  0.7337976  0.4121993    0.00000       Uiso       1.00
       C12          C  0.7250711  0.7263554  0.4714284    0.00000       Uiso       1.00
       C11          C  0.2758851  0.7337976  0.5878007    0.00000       Uiso       1.00
       C12          C  0.2749289  0.7263554  0.5285717    0.00000       Uiso       1.00
        H9          H  0.7636306  0.7227399  0.4736493    0.00000       Uiso       1.00
        H9          H  0.2363694  0.7227399  0.5263507    0.00000       Uiso       1.00
       C13          C  0.6210120  0.7335235  0.4651179    0.00000       Uiso       1.00
       C14          C  0.6219363  0.7325087  0.5245240    0.00000       Uiso       1.00
       C13          C  0.3789880  0.7335235  0.5348821    0.00000       Uiso       1.00
       C14          C  0.3780636  0.7325087  0.4754761    0.00000       Uiso       1.00
       H10          H  0.5840529  0.7347354  0.5661442    0.00000       Uiso       1.00
       H10          H  0.4159470  0.7347354  0.4338558    0.00000       Uiso       1.00
       C15          C  0.8802758  0.7046788  0.5919020    0.00000       Uiso       1.00
       C16          C  0.8280869  0.7022035  0.5891033    0.00000       Uiso       1.00
       C15          C  0.1197242  0.7046788  0.4080980    0.00000       Uiso       1.00
       C16          C  0.1719131  0.7022035  0.4108967    0.00000       Uiso       1.00
       H11          H  0.8272465  0.7067356  0.5452766    0.00000       Uiso       1.00
       H11          H  0.1727534  0.7067356  0.4547234    0.00000       Uiso       1.00
       C17          C  0.5307143  0.6552935  0.8642669    0.00000       Uiso       1.00
       C18          C  0.5814570  0.6655404  0.8076813    0.00000       Uiso       1.00
       C17          C  0.4692856  0.6552935  0.1357332    0.00000       Uiso       1.00
       C18          C  0.4185430  0.6655404  0.1923187    0.00000       Uiso       1.00
       H12          H  0.6201977  0.6646690  0.8093921    0.00000       Uiso       1.00
       H12          H  0.3798023  0.6646690  0.1906080    0.00000       Uiso       1.00
       C19          C  0.6753495  0.7069088  0.5866544    0.00000       Uiso       1.00
       C20          C  0.6722272  0.7316454  0.4089208    0.00000       Uiso       1.00
       C21          C  0.6740102  0.7231522  0.5276354    0.00000       Uiso       1.00
       C22          C  0.6306756  0.6873267  0.6922076    0.00000       Uiso       1.00
       C23          C  0.4782064  0.6564126  0.8620250    0.00000       Uiso       1.00
       C24          C  0.5798746  0.6770638  0.7487776    0.00000       Uiso       1.00
       C25          C  0.7249496  0.6954186  0.6423498    0.00000       Uiso       1.00
       C26          C  0.8812899  0.7002369  0.6512331    0.00000       Uiso       1.00
       C27          C  0.7770309  0.6944324  0.6454123    0.00000       Uiso       1.00
       C28          C  0.7227979  0.7056745  0.5891703    0.00000       Uiso       1.00
       C29          C  0.6295613  0.6976717  0.6384795    0.00000       Uiso       1.00
       C30          C  0.6786156  0.6863078  0.6935621    0.00000       Uiso       1.00
       C19          C  0.3246504  0.7069088  0.4133457    0.00000       Uiso       1.00
       C20          C  0.3277728  0.7316454  0.5910792    0.00000       Uiso       1.00
       C21          C  0.3259897  0.7231522  0.4723646    0.00000       Uiso       1.00
       C22          C  0.3693243  0.6873267  0.3077924    0.00000       Uiso       1.00
       C23          C  0.5217935  0.6564126  0.1379751    0.00000       Uiso       1.00
       C24          C  0.4201253  0.6770638  0.2512225    0.00000       Uiso       1.00
       C25          C  0.2750503  0.6954186  0.3576502    0.00000       Uiso       1.00
       C26          C  0.1187101  0.7002369  0.3487669    0.00000       Uiso       1.00
       C27          C  0.2229691  0.6944324  0.3545877    0.00000       Uiso       1.00
       C28          C  0.2772021  0.7056745  0.4108298    0.00000       Uiso       1.00
       C29          C  0.3704386  0.6976717  0.3615206    0.00000       Uiso       1.00
       C30          C  0.3213844  0.6863078  0.3064379    0.00000       Uiso       1.00
       H13          H  0.5905201  0.6985013  0.6373764    0.00000       Uiso       1.00
       H14          H  0.6803679  0.6779556  0.7368704    0.00000       Uiso       1.00
       H15          H  0.7605313  0.7130941  0.5474642    0.00000       Uiso       1.00
       H13          H  0.4094799  0.6985013  0.3626237    0.00000       Uiso       1.00
       H14          H  0.3196321  0.6779556  0.2631297    0.00000       Uiso       1.00
       H15          H  0.2394686  0.7130941  0.4525359    0.00000       Uiso       1.00
        O1          O  0.6719430  0.7321931  0.3504763    0.00000       Uiso       1.00
        O2          O  0.4286685  0.6475478  0.9178000    0.00000       Uiso       1.00
        O3          O  0.9322086  0.7055200  0.6544816    0.00000       Uiso       1.00
        O1          O  0.3280570  0.7321931  0.6495237    0.00000       Uiso       1.00
        O2          O  0.5713315  0.6475478  0.0822000    0.00000       Uiso       1.00
        O3          O  0.0677914  0.7055200  0.3455184    0.00000       Uiso       1.00
       H16          H  0.7121100  0.7551153  0.3162154    0.00000       Uiso       1.00
       H17          H  0.4292360  0.7633697  0.9478841    0.00000       Uiso       1.00
       H18          H  0.9348716  0.8440464  0.6757940    0.00000       Uiso       1.00
       H16          H  0.2878900  0.7551153  0.6837846    0.00000       Uiso       1.00
       H17          H  0.5707639  0.7633697  0.0521159    0.00000       Uiso       1.00
       H18          H  0.0651284  0.8440464  0.3242061    0.00000       Uiso       1.00
       C31          C  0.8314772  0.6789440  0.7665393    0.00000       Uiso       1.00
       C32          C  0.7756270  0.6709232  0.8151572    0.00000       Uiso       1.00
       C33          C  0.8591028  0.8623260  0.7742047    0.00000       Uiso       1.00
       C34          C  0.8610147  0.4930792  0.7687279    0.00000       Uiso       1.00
       C31          C  0.1685228  0.6789440  0.2334608    0.00000       Uiso       1.00
       C32          C  0.2243729  0.6709232  0.1848428    0.00000       Uiso       1.00
       C33          C  0.1408971  0.8623260  0.2257953    0.00000       Uiso       1.00
       C34          C  0.1389854  0.4930792  0.2312721    0.00000       Uiso       1.00
       H19          H  0.7762522  0.6630516  0.8590643    0.00000       Uiso       1.00
       H20          H  0.7553892  0.5352508  0.8090311    0.00000       Uiso       1.00
       H21          H  0.7539197  0.8085284  0.8131736    0.00000       Uiso       1.00
       H22          H  0.9003511  0.8675689  0.7379635    0.00000       Uiso       1.00
       H23          H  0.8600402  0.8549954  0.8179568    0.00000       Uiso       1.00
       H24          H  0.8373541  0.9999313  0.7723142    0.00000       Uiso       1.00
       H25          H  0.8406426  0.3573765  0.7628579    0.00000       Uiso       1.00
       H26          H  0.8620520  0.4850796  0.8124189    0.00000       Uiso       1.00
       H27          H  0.9022205  0.4994826  0.7324118    0.00000       Uiso       1.00
       H19          H  0.2237477  0.6630516  0.1409357    0.00000       Uiso       1.00
       H20          H  0.2446107  0.5352508  0.1909690    0.00000       Uiso       1.00
       H21          H  0.2460802  0.8085284  0.1868265    0.00000       Uiso       1.00
       H22          H  0.0996488  0.8675689  0.2620366    0.00000       Uiso       1.00
       H23          H  0.1399597  0.8549954  0.1820433    0.00000       Uiso       1.00
       H24          H  0.1626459  0.9999313  0.2276859    0.00000       Uiso       1.00
       H25          H  0.1593574  0.3573765  0.2371421    0.00000       Uiso       1.00
       H26          H  0.1379479  0.4850796  0.1875812    0.00000       Uiso       1.00
       H27          H  0.0977795  0.4994826  0.2675882    0.00000       Uiso       1.00
       C35          C  0.4247395  0.6699797  0.7991688    0.00000       Uiso       1.00
       C36          C  0.3778224  0.6594455  0.8593478    0.00000       Uiso       1.00
       C37          C  0.4234614  0.4924425  0.7627083    0.00000       Uiso       1.00
       C38          C  0.4215664  0.8604138  0.7685659    0.00000       Uiso       1.00
       C35          C  0.5752605  0.6699797  0.2008312    0.00000       Uiso       1.00
       C36          C  0.6221775  0.6594455  0.1406523    0.00000       Uiso       1.00
       C37          C  0.5765385  0.4924425  0.2372918    0.00000       Uiso       1.00
       C38          C  0.5784336  0.8604138  0.2314342    0.00000       Uiso       1.00
       H28          H  0.3406138  0.6611592  0.8541836    0.00000       Uiso       1.00
       H29          H  0.3783780  0.7912747  0.8863933    0.00000       Uiso       1.00
       H30          H  0.3798342  0.5179763  0.8819849    0.00000       Uiso       1.00
       H31          H  0.4577186  0.5013807  0.7177764    0.00000       Uiso       1.00
       H32          H  0.3858264  0.4940424  0.7584043    0.00000       Uiso       1.00
       H33          H  0.4260051  0.3506354  0.7849175    0.00000       Uiso       1.00
       H34          H  0.4226819  0.9927784  0.7951627    0.00000       Uiso       1.00
       H35          H  0.3839241  0.8619567  0.7642792    0.00000       Uiso       1.00
       H36          H  0.4558309  0.8673110  0.7235964    0.00000       Uiso       1.00
       H28          H  0.6593862  0.6611592  0.1458165    0.00000       Uiso       1.00
       H29          H  0.6216220  0.7912747  0.1136067    0.00000       Uiso       1.00
       H30          H  0.6201657  0.5179763  0.1180151    0.00000       Uiso       1.00
       H31          H  0.5422814  0.5013807  0.2822236    0.00000       Uiso       1.00
       H32          H  0.6141735  0.4940424  0.2415957    0.00000       Uiso       1.00
       H33          H  0.5739948  0.3506354  0.2150826    0.00000       Uiso       1.00
       H34          H  0.5773181  0.9927784  0.2048373    0.00000       Uiso       1.00
       H35          H  0.6160758  0.8619567  0.2357208    0.00000       Uiso       1.00
       H36          H  0.5441691  0.8673110  0.2764036    0.00000       Uiso       1.00
       C39          C  0.7751238  0.7437402  0.3560294    0.00000       Uiso       1.00
       C40          C  0.8209340  0.7401142  0.3713034    0.00000       Uiso       1.00
       C41          C  0.7764959  0.9362295  0.3238787    0.00000       Uiso       1.00
       C42          C  0.7787960  0.5664907  0.3171765    0.00000       Uiso       1.00
       C39          C  0.2248762  0.7437402  0.6439706    0.00000       Uiso       1.00
       C40          C  0.1790660  0.7401142  0.6286966    0.00000       Uiso       1.00
       C41          C  0.2235040  0.9362295  0.6761214    0.00000       Uiso       1.00
       C42          C  0.2212039  0.5664907  0.6828236    0.00000       Uiso       1.00
       H37          H  0.8587717  0.7484849  0.3297634    0.00000       Uiso       1.00
       H38          H  0.8197852  0.5979863  0.3953257    0.00000       Uiso       1.00
       H39          H  0.8179681  0.8712231  0.4002042    0.00000       Uiso       1.00
       H40          H  0.7424994  0.9391277  0.3126375    0.00000       Uiso       1.00
       H41          H  0.8143464  0.9451843  0.2823698    0.00000       Uiso       1.00
       H42          H  0.7735834  1.0667411  0.3529676    0.00000       Uiso       1.00
       H43          H  0.7775744  0.4245474  0.3413212    0.00000       Uiso       1.00
       H44          H  0.8166611  0.5741654  0.2756620    0.00000       Uiso       1.00
       H45          H  0.7448265  0.5696658  0.3058878    0.00000       Uiso       1.00
       H37          H  0.1412282  0.7484849  0.6702366    0.00000       Uiso       1.00
       H38          H  0.1802147  0.5979863  0.6046743    0.00000       Uiso       1.00
       H39          H  0.1820319  0.8712231  0.5997958    0.00000       Uiso       1.00
       H40          H  0.2575005  0.9391277  0.6873625    0.00000       Uiso       1.00
       H41          H  0.1856536  0.9451843  0.7176302    0.00000       Uiso       1.00
       H42          H  0.2264166  1.0667411  0.6470325    0.00000       Uiso       1.00
       H43          H  0.2224256  0.4245474  0.6586788    0.00000       Uiso       1.00
       H44          H  0.1833388  0.5741654  0.7243381    0.00000       Uiso       1.00
       H45          H  0.2551734  0.5696658  0.6941122    0.00000       Uiso       1.00
