data_crystal
 
_cell_length_a    28.86790
_cell_length_b    6.80000
_cell_length_c    25.74800
_cell_angle_alpha 90.00000
_cell_angle_beta  63.52950
_cell_angle_gamma 90.00000
 
_symmetry_space_group_name_Hall 'P 1'
_symmetry_space_group_name_H-M  'P 1'
 
loop_
_symmetry_equiv_pos_as_xyz
 'x,y,z' 
 
loop_
_atom_site_label
_atom_site_type_symbol
_atom_site_fract_x
_atom_site_fract_y
_atom_site_fract_z
_atom_site_charge
N          N       0.52082   0.73529   0.50469   0.0000000000
N          N       0.47918   0.73529   0.49531   0.0000000000
C          C       0.57075   0.73529   0.46267   0.0000000000
C          C       0.42925   0.73529   0.53733   0.0000000000
H          H       0.58053   0.73529   0.41921   0.0000000000
H          H       0.41947   0.73529   0.58079   0.0000000000
N          N       0.49556   0.64443   0.97684   0.0000000000
N          N       0.50444   0.64443   0.02316   0.0000000000
C          C       0.53268   0.64443   0.92074   0.0000000000
C          C       0.46732   0.64443   0.07926   0.0000000000
H          H       0.57152   0.64443   0.90938   0.0000000000
H          H       0.42848   0.64443   0.09062   0.0000000000
N          N       0.98010   0.71089   0.52624   0.0000000000
N          N       0.01990   0.71089   0.47376   0.0000000000
C          C       0.92927   0.71089   0.53753   0.0000000000
C          C       0.07073   0.71089   0.46247   0.0000000000
H          H       0.91725   0.71089   0.50560   0.0000000000
H          H       0.08275   0.71089   0.49440   0.0000000000
C          C       0.47663   0.66824   0.80289   0.0000000000
C          C       0.52751   0.67833   0.74644   0.0000000000
C          C       0.52337   0.66824   0.19711   0.0000000000
C          C       0.47249   0.67833   0.25356   0.0000000000
H          H       0.52638   0.68674   0.70281   0.0000000000
H          H       0.47362   0.68674   0.29719   0.0000000000
C          C       0.83028   0.68875   0.70745   0.0000000000
C          C       0.77812   0.68691   0.70464   0.0000000000
C          C       0.16972   0.68875   0.29255   0.0000000000
C          C       0.22188   0.68691   0.29535   0.0000000000
H          H       0.74037   0.68027   0.74636   0.0000000000
H          H       0.25963   0.68027   0.25364   0.0000000000
C          C       0.72411   0.73380   0.41220   0.0000000000
C          C       0.72507   0.72636   0.47143   0.0000000000
C          C       0.27589   0.73380   0.58780   0.0000000000
C          C       0.27493   0.72636   0.52857   0.0000000000
H          H       0.76363   0.72274   0.47365   0.0000000000
H          H       0.23637   0.72274   0.52635   0.0000000000
C          C       0.62101   0.73352   0.46512   0.0000000000
C          C       0.62194   0.73251   0.52452   0.0000000000
C          C       0.37899   0.73352   0.53488   0.0000000000
C          C       0.37806   0.73251   0.47548   0.0000000000
H          H       0.58405   0.73474   0.56614   0.0000000000
H          H       0.41595   0.73474   0.43386   0.0000000000
C          C       0.88028   0.70468   0.59190   0.0000000000
C          C       0.82809   0.70220   0.58910   0.0000000000
C          C       0.11972   0.70468   0.40810   0.0000000000
C          C       0.17191   0.70220   0.41090   0.0000000000
H          H       0.82725   0.70674   0.54528   0.0000000000
H          H       0.17275   0.70674   0.45472   0.0000000000
C          C       0.53071   0.65529   0.86427   0.0000000000
C          C       0.58146   0.66554   0.80768   0.0000000000
C          C       0.46929   0.65529   0.13573   0.0000000000
C          C       0.41854   0.66554   0.19232   0.0000000000
H          H       0.62020   0.66467   0.80939   0.0000000000
H          H       0.37980   0.66467   0.19061   0.0000000000
C          C       0.67535   0.70691   0.58665   0.0000000000
C          C       0.67223   0.73165   0.40892   0.0000000000
C          C       0.67401   0.72315   0.52764   0.0000000000
C          C       0.63068   0.68733   0.69221   0.0000000000
C          C       0.47821   0.65641   0.86203   0.0000000000
C          C       0.57987   0.67706   0.74878   0.0000000000
C          C       0.72495   0.69542   0.64235   0.0000000000
C          C       0.88129   0.70024   0.65123   0.0000000000
C          C       0.77703   0.69443   0.64541   0.0000000000
C          C       0.72280   0.70567   0.58917   0.0000000000
C          C       0.62956   0.69767   0.63848   0.0000000000
C          C       0.67862   0.68631   0.69356   0.0000000000
C          C       0.32465   0.70691   0.41335   0.0000000000
C          C       0.32777   0.73165   0.59108   0.0000000000
C          C       0.32599   0.72315   0.47236   0.0000000000
C          C       0.36932   0.68733   0.30779   0.0000000000
C          C       0.52179   0.65641   0.13798   0.0000000000
C          C       0.42013   0.67706   0.25122   0.0000000000
C          C       0.27505   0.69542   0.35765   0.0000000000
C          C       0.11871   0.70024   0.34877   0.0000000000
C          C       0.22297   0.69443   0.35459   0.0000000000
C          C       0.27720   0.70567   0.41083   0.0000000000
C          C       0.37044   0.69767   0.36152   0.0000000000
C          C       0.32138   0.68631   0.30644   0.0000000000
H          H       0.59052   0.69850   0.63738   0.0000000000
H          H       0.68037   0.67796   0.73687   0.0000000000
H          H       0.76053   0.71309   0.54746   0.0000000000
H          H       0.40948   0.69850   0.36262   0.0000000000
H          H       0.31963   0.67796   0.26313   0.0000000000
H          H       0.23947   0.71309   0.45254   0.0000000000
O          O       0.67194   0.73219   0.35048   0.0000000000
O          O       0.42867   0.64755   0.91780   0.0000000000
O          O       0.93221   0.70552   0.65448   0.0000000000
O          O       0.32806   0.73219   0.64952   0.0000000000
O          O       0.57133   0.64755   0.08220   0.0000000000
O          O       0.06779   0.70552   0.34552   0.0000000000
H          H       0.71211   0.75512   0.31622   0.0000000000
H          H       0.42924   0.76337   0.94788   0.0000000000
H          H       0.93487   0.84405   0.67579   0.0000000000
H          H       0.28789   0.75512   0.68378   0.0000000000
H          H       0.57076   0.76337   0.05212   0.0000000000
H          H       0.06513   0.84405   0.32421   0.0000000000
C          C       0.83148   0.67894   0.76654   0.0000000000
C          C       0.77563   0.67092   0.81516   0.0000000000
C          C       0.85910   0.86233   0.77420   0.0000000000
C          C       0.86101   0.49308   0.76873   0.0000000000
C          C       0.16852   0.67894   0.23346   0.0000000000
C          C       0.22437   0.67092   0.18484   0.0000000000
C          C       0.14090   0.86233   0.22580   0.0000000000
C          C       0.13899   0.49308   0.23127   0.0000000000
H          H       0.77625   0.66305   0.85906   0.0000000000
H          H       0.75539   0.53525   0.80903   0.0000000000
H          H       0.75392   0.80853   0.81317   0.0000000000
H          H       0.90035   0.86757   0.73796   0.0000000000
H          H       0.86004   0.85500   0.81796   0.0000000000
H          H       0.83735   0.99993   0.77231   0.0000000000
H          H       0.84064   0.35738   0.76286   0.0000000000
H          H       0.86205   0.48508   0.81242   0.0000000000
H          H       0.90222   0.49948   0.73241   0.0000000000
H          H       0.22375   0.66305   0.14094   0.0000000000
H          H       0.24461   0.53525   0.19097   0.0000000000
H          H       0.24608   0.80853   0.18683   0.0000000000
H          H       0.09965   0.86757   0.26204   0.0000000000
H          H       0.13996   0.85500   0.18204   0.0000000000
H          H       0.16265   0.99993   0.22769   0.0000000000
H          H       0.15936   0.35738   0.23714   0.0000000000
H          H       0.13795   0.48508   0.18758   0.0000000000
H          H       0.09778   0.49948   0.26759   0.0000000000
C          C       0.42474   0.66998   0.79917   0.0000000000
C          C       0.37782   0.65945   0.85935   0.0000000000
C          C       0.42346   0.49244   0.76271   0.0000000000
C          C       0.42157   0.86041   0.76857   0.0000000000
C          C       0.57526   0.66998   0.20083   0.0000000000
C          C       0.62218   0.65945   0.14065   0.0000000000
C          C       0.57654   0.49244   0.23729   0.0000000000
C          C       0.57843   0.86041   0.23143   0.0000000000
H          H       0.34061   0.66116   0.85418   0.0000000000
H          H       0.37838   0.79127   0.88639   0.0000000000
H          H       0.37983   0.51798   0.88198   0.0000000000
H          H       0.45772   0.50138   0.71778   0.0000000000
H          H       0.38583   0.49404   0.75840   0.0000000000
H          H       0.42601   0.35064   0.78492   0.0000000000
H          H       0.42268   0.99278   0.79516   0.0000000000
H          H       0.38392   0.86196   0.76428   0.0000000000
H          H       0.45583   0.86731   0.72360   0.0000000000
H          H       0.65939   0.66116   0.14582   0.0000000000
H          H       0.62162   0.79127   0.11361   0.0000000000
H          H       0.62017   0.51798   0.11802   0.0000000000
H          H       0.54228   0.50138   0.28222   0.0000000000
H          H       0.61417   0.49404   0.24160   0.0000000000
H          H       0.57399   0.35064   0.21508   0.0000000000
H          H       0.57732   0.99278   0.20484   0.0000000000
H          H       0.61608   0.86196   0.23572   0.0000000000
H          H       0.54417   0.86731   0.27640   0.0000000000
C          C       0.77512   0.74374   0.35603   0.0000000000
C          C       0.82093   0.74011   0.37130   0.0000000000
C          C       0.77650   0.93623   0.32388   0.0000000000
C          C       0.77880   0.56649   0.31718   0.0000000000
C          C       0.22488   0.74374   0.64397   0.0000000000
C          C       0.17907   0.74011   0.62870   0.0000000000
C          C       0.22350   0.93623   0.67612   0.0000000000
C          C       0.22120   0.56649   0.68282   0.0000000000
H          H       0.85877   0.74848   0.32976   0.0000000000
H          H       0.81979   0.59799   0.39533   0.0000000000
H          H       0.81797   0.87122   0.40020   0.0000000000
H          H       0.74250   0.93913   0.31264   0.0000000000
H          H       0.81435   0.94518   0.28237   0.0000000000
H          H       0.77358   1.06674   0.35297   0.0000000000
H          H       0.77757   0.42455   0.34132   0.0000000000
H          H       0.81666   0.57417   0.27566   0.0000000000
H          H       0.74483   0.56967   0.30589   0.0000000000
H          H       0.14123   0.74848   0.67024   0.0000000000
H          H       0.18021   0.59799   0.60467   0.0000000000
H          H       0.18203   0.87122   0.59980   0.0000000000
H          H       0.25750   0.93913   0.68736   0.0000000000
H          H       0.18565   0.94518   0.71763   0.0000000000
H          H       0.22642   1.06674   0.64703   0.0000000000
H          H       0.22243   0.42455   0.65868   0.0000000000
H          H       0.18334   0.57417   0.72434   0.0000000000
H          H       0.25517   0.56967   0.69411   0.0000000000
