data_COF-JLU4
_audit_creation_date              0000-00-00
_audit_creation_method            'LanYouShi'
_symmetry_space_group_name_H-M    'P1'
_cell_length_a                    30.6420994
_cell_length_b                    30.6420994
_cell_length_c                    3.9391000
_cell_angle_alpha                 90.0000000
_cell_angle_beta                  90.0000000
_cell_angle_gamma                 120.0000000
loop_
_atom_site_label
_atom_site_type_symbol
_atom_site_fract_x
_atom_site_fract_y
_atom_site_fract_z
_atom_site_U_iso_or_equiv
_atom_site_adp_type
_atom_site_occupancy
        H1          H  0.5937600  0.6475500  0.7218900    0.00000       Uiso       1.00
        H2          H  0.3524500  0.9462000  0.7218900    0.00000       Uiso       1.00
        H3          H  0.0538000  0.4062400  0.7218900    0.00000       Uiso       1.00
        H4          H  0.4062400  0.3524500  0.7218900    0.00000       Uiso       1.00
        H5          H  0.6475500  0.0538000  0.7218900    0.00000       Uiso       1.00
        H6          H  0.9462000  0.5937600  0.7218900    0.00000       Uiso       1.00
        H7          H  0.4062400  0.3524500  0.2781100    0.00000       Uiso       1.00
        H8          H  0.6475500  0.0538000  0.2781100    0.00000       Uiso       1.00
        H9          H  0.9462000  0.5937600  0.2781100    0.00000       Uiso       1.00
       H10          H  0.5937600  0.6475500  0.2781100    0.00000       Uiso       1.00
       H11          H  0.3524500  0.9462000  0.2781100    0.00000       Uiso       1.00
       H12          H  0.0538000  0.4062400  0.2781100    0.00000       Uiso       1.00
       C13          C  0.8972800  0.4197600  0.5000000    0.00000       Uiso       1.00
       C14          C  0.9478500  0.4603900  0.5000000    0.00000       Uiso       1.00
       O15          O  0.8877800  0.3748500  0.5000000    0.00000       Uiso       1.00
       N16          N  0.8573400  0.4271400  0.5000000    0.00000       Uiso       1.00
       C17          C  0.4489100  0.9608200  0.5000000    0.00000       Uiso       1.00
       N18          N  0.5821100  0.1898000  0.5000000    0.00000       Uiso       1.00
       C19          C  0.9879500  0.4498900  0.5000000    0.00000       Uiso       1.00
       H20          H  0.9799100  0.4132800  0.5000000    0.00000       Uiso       1.00
       C21          C  0.7728100  0.4035300  0.5000000    0.00000       Uiso       1.00
       C22          C  0.2798100  0.6320800  0.5000000    0.00000       Uiso       1.00
       C23          C  0.3148600  0.6144300  0.5000000    0.00000       Uiso       1.00
       O24          O  0.2697800  0.7020801  0.5000000    0.00000       Uiso       1.00
       H25          H  0.5556700  0.1981800  0.5000000    0.00000       Uiso       1.00
       H26          H  0.7843201  0.4412000  0.5000000    0.00000       Uiso       1.00
       O27          O  0.5240700  0.6005200  0.5000000    0.00000       Uiso       1.00
       C28          C  0.5720900  0.6458200  0.5000000    0.00000       Uiso       1.00
       H29          H  0.5663700  0.6781900  0.5000000    0.00000       Uiso       1.00
       C30          C  0.5802400  0.4775200  0.5000000    0.00000       Uiso       1.00
       C31          C  0.5396100  0.4874600  0.5000000    0.00000       Uiso       1.00
       O32          O  0.6251500  0.5129300  0.5000000    0.00000       Uiso       1.00
       N33          N  0.5728600  0.4302000  0.5000000    0.00000       Uiso       1.00
       C34          C  0.0391800  0.4880800  0.5000000    0.00000       Uiso       1.00
       N35          N  0.8102000  0.3923100  0.5000000    0.00000       Uiso       1.00
       C36          C  0.5501100  0.5380600  0.5000000    0.00000       Uiso       1.00
       H37          H  0.5867200  0.5666300  0.5000000    0.00000       Uiso       1.00
       C38          C  0.5964700  0.3692900  0.5000000    0.00000       Uiso       1.00
       C39          C  0.3679200  0.6477300  0.5000000    0.00000       Uiso       1.00
       C40          C  0.3855700  0.7004300  0.5000000    0.00000       Uiso       1.00
       O41          O  0.2979200  0.5677000  0.5000000    0.00000       Uiso       1.00
       H42          H  0.8018200  0.3575000  0.5000000    0.00000       Uiso       1.00
       H43          H  0.5588000  0.3431100  0.5000000    0.00000       Uiso       1.00
       O44          O  0.3994800  0.9235501  0.5000000    0.00000       Uiso       1.00
       C45          C  0.3541800  0.9262601  0.5000000    0.00000       Uiso       1.00
       H46          H  0.3218100  0.8881800  0.5000000    0.00000       Uiso       1.00
       C47          C  0.5224800  0.1027200  0.5000000    0.00000       Uiso       1.00
       C48          C  0.5125400  0.0521500  0.5000000    0.00000       Uiso       1.00
       O49          O  0.4870700  0.1122200  0.5000000    0.00000       Uiso       1.00
       N50          N  0.5698000  0.1426600  0.5000000    0.00000       Uiso       1.00
       C51          C  0.5119200  0.5510900  0.5000000    0.00000       Uiso       1.00
       N52          N  0.6076900  0.4178900  0.5000000    0.00000       Uiso       1.00
       C53          C  0.4619400  0.0120500  0.5000000    0.00000       Uiso       1.00
       H54          H  0.4333700  0.0200900  0.5000000    0.00000       Uiso       1.00
       C55          C  0.6307100  0.2271900  0.5000000    0.00000       Uiso       1.00
       C56          C  0.3522700  0.7201900  0.5000000    0.00000       Uiso       1.00
       C57          C  0.2995700  0.6851400  0.5000000    0.00000       Uiso       1.00
       O58          O  0.4323000  0.7302200  0.5000000    0.00000       Uiso       1.00
       H59          H  0.6425000  0.4443300  0.5000000    0.00000       Uiso       1.00
       H60          H  0.6568900  0.2156800  0.5000000    0.00000       Uiso       1.00
       O61          O  0.0764500  0.4759300  0.5000000    0.00000       Uiso       1.00
       C62          C  0.0737400  0.4279100  0.5000000    0.00000       Uiso       1.00
       H63          H  0.1118200  0.4336300  0.5000000    0.00000       Uiso       1.00
       C64          C  0.1027200  0.5802400  0.5000000    0.00000       Uiso       1.00
       C65          C  0.0521500  0.5396100  0.5000000    0.00000       Uiso       1.00
       O66          O  0.1122200  0.6251500  0.5000000    0.00000       Uiso       1.00
       N67          N  0.1426600  0.5728600  0.5000000    0.00000       Uiso       1.00
       C68          C  0.5510900  0.0391800  0.5000000    0.00000       Uiso       1.00
       N69          N  0.4178900  0.8102000  0.5000000    0.00000       Uiso       1.00
       C70          C  0.0120500  0.5501100  0.5000000    0.00000       Uiso       1.00
       H71          H  0.0200900  0.5867200  0.5000000    0.00000       Uiso       1.00
       C72          C  0.2271900  0.5964700  0.5000000    0.00000       Uiso       1.00
       C73          C  0.7201900  0.3679200  0.5000000    0.00000       Uiso       1.00
       C74          C  0.6851400  0.3855700  0.5000000    0.00000       Uiso       1.00
       O75          O  0.7302200  0.2979200  0.5000000    0.00000       Uiso       1.00
       H76          H  0.4443300  0.8018200  0.5000000    0.00000       Uiso       1.00
       H77          H  0.2156800  0.5588000  0.5000000    0.00000       Uiso       1.00
       O78          O  0.4759300  0.3994800  0.5000000    0.00000       Uiso       1.00
       C79          C  0.4279100  0.3541800  0.5000000    0.00000       Uiso       1.00
       H80          H  0.4336300  0.3218100  0.5000000    0.00000       Uiso       1.00
       C81          C  0.4197600  0.5224800  0.5000000    0.00000       Uiso       1.00
       C82          C  0.4603900  0.5125400  0.5000000    0.00000       Uiso       1.00
       O83          O  0.3748500  0.4870700  0.5000000    0.00000       Uiso       1.00
       N84          N  0.4271400  0.5698000  0.5000000    0.00000       Uiso       1.00
       C85          C  0.9608200  0.5119200  0.5000000    0.00000       Uiso       1.00
       N86          N  0.1898000  0.6076900  0.5000000    0.00000       Uiso       1.00
       C87          C  0.4498900  0.4619400  0.5000000    0.00000       Uiso       1.00
       H88          H  0.4132800  0.4333700  0.5000000    0.00000       Uiso       1.00
       C89          C  0.4035300  0.6307101  0.5000000    0.00000       Uiso       1.00
       C90          C  0.6320800  0.3522700  0.5000000    0.00000       Uiso       1.00
       C91          C  0.6144300  0.2995700  0.5000000    0.00000       Uiso       1.00
       O92          O  0.7020800  0.4323000  0.5000000    0.00000       Uiso       1.00
       H93          H  0.1981800  0.6425000  0.5000000    0.00000       Uiso       1.00
       H94          H  0.4412000  0.6568900  0.5000000    0.00000       Uiso       1.00
       O95          O  0.6005200  0.0764500  0.5000000    0.00000       Uiso       1.00
       C96          C  0.6458200  0.0737400  0.5000000    0.00000       Uiso       1.00
       H97          H  0.6781901  0.1118200  0.5000000    0.00000       Uiso       1.00
       C98          C  0.4775200  0.8972800  0.5000000    0.00000       Uiso       1.00
       C99          C  0.4874600  0.9478500  0.5000000    0.00000       Uiso       1.00
      O100          O  0.5129300  0.8877800  0.5000000    0.00000       Uiso       1.00
      N101          N  0.4302000  0.8573400  0.5000000    0.00000       Uiso       1.00
      C102          C  0.4880800  0.4489100  0.5000000    0.00000       Uiso       1.00
      N103          N  0.3923100  0.5821100  0.5000000    0.00000       Uiso       1.00
      C104          C  0.5380600  0.9879500  0.5000000    0.00000       Uiso       1.00
      H105          H  0.5666300  0.9799100  0.5000000    0.00000       Uiso       1.00
      C106          C  0.3692900  0.7728100  0.5000000    0.00000       Uiso       1.00
      C107          C  0.6477300  0.2798100  0.5000000    0.00000       Uiso       1.00
      C108          C  0.7004300  0.3148600  0.5000000    0.00000       Uiso       1.00
      O109          O  0.5677000  0.2697800  0.5000000    0.00000       Uiso       1.00
      H110          H  0.3575000  0.5556700  0.5000000    0.00000       Uiso       1.00
      H111          H  0.3431100  0.7843200  0.5000000    0.00000       Uiso       1.00
      O112          O  0.9235500  0.5240700  0.5000000    0.00000       Uiso       1.00
      C113          C  0.9262601  0.5720900  0.5000000    0.00000       Uiso       1.00
      H114          H  0.8881800  0.5663700  0.5000000    0.00000       Uiso       1.00
