data_COF-LZU8
_audit_creation_date              0000-00-00
_audit_creation_method            'LanYouShi'
_symmetry_space_group_name_H-M    'P1'
_cell_length_a                    30.5230999
_cell_length_b                    30.5230999
_cell_length_c                    4.0929999
_cell_angle_alpha                 90.0000000
_cell_angle_beta                  90.0000000
_cell_angle_gamma                 120.0000000
loop_
_atom_site_label
_atom_site_type_symbol
_atom_site_fract_x
_atom_site_fract_y
_atom_site_fract_z
_atom_site_U_iso_or_equiv
_atom_site_adp_type
_atom_site_occupancy
        C1          C  0.3855868  0.6811039  0.4999998    0.00000       Uiso       1.00
        C2          C  0.3188969  0.7044836  0.4999998    0.00000       Uiso       1.00
        C3          C  0.2955171  0.6144140  0.4999998    0.00000       Uiso       1.00
        C4          C  0.3704662  0.7180084  0.4999998    0.00000       Uiso       1.00
        C5          C  0.2819924  0.6524585  0.4999998    0.00000       Uiso       1.00
        C6          C  0.3475422  0.6295345  0.4999998    0.00000       Uiso       1.00
        H1          H  0.3975484  0.7556062  0.4999998    0.00000       Uiso       1.00
        H2          H  0.2443946  0.6419430  0.4999998    0.00000       Uiso       1.00
        H3          H  0.3580578  0.6024524  0.4999998    0.00000       Uiso       1.00
       C10          C  0.9477470  0.9855619  0.4999998    0.00000       Uiso       1.00
       C11          C  0.9628697  0.9486589  0.4999998    0.00000       Uiso       1.00
       C10          C  0.0144389  0.9621859  0.4999998    0.00000       Uiso       1.00
       C10          C  0.0378149  0.0522538  0.4999998    0.00000       Uiso       1.00
       C11          C  0.0513418  0.0142108  0.4999998    0.00000       Uiso       1.00
       C11          C  0.9857900  0.0371311  0.4999998    0.00000       Uiso       1.00
        H7          H  0.9752728  0.0642121  0.4999998    0.00000       Uiso       1.00
        H7          H  0.9357886  0.9110607  0.4999998    0.00000       Uiso       1.00
        H7          H  0.0889401  0.0247280  0.4999998    0.00000       Uiso       1.00
       C19          C  0.7202610  0.8499132  0.4999998    0.00000       Uiso       1.00
       C20          C  0.6825251  0.7980068  0.4999998    0.00000       Uiso       1.00
       C21          C  0.6301414  0.7810231  0.4999998    0.00000       Uiso       1.00
       C22          C  0.6130732  0.8167491  0.4999998    0.00000       Uiso       1.00
       C23          C  0.6508090  0.8686553  0.4999998    0.00000       Uiso       1.00
       C24          C  0.7031928  0.8856391  0.4999998    0.00000       Uiso       1.00
       C25          C  0.5611793  0.8035440  0.4999998    0.00000       Uiso       1.00
       C26          C  0.7721549  0.8631182  0.4999998    0.00000       Uiso       1.00
       C19          C  0.1500876  0.8703487  0.4999998    0.00000       Uiso       1.00
       C20          C  0.2019939  0.8845190  0.4999998    0.00000       Uiso       1.00
       C21          C  0.2189776  0.8491190  0.4999998    0.00000       Uiso       1.00
       C22          C  0.1832517  0.7963248  0.4999998    0.00000       Uiso       1.00
       C23          C  0.1313454  0.7821544  0.4999998    0.00000       Uiso       1.00
       C24          C  0.1143617  0.8175545  0.4999998    0.00000       Uiso       1.00
       C25          C  0.1964568  0.7576361  0.4999998    0.00000       Uiso       1.00
       C26          C  0.1368825  0.9090374  0.4999998    0.00000       Uiso       1.00
       C19          C  0.1296521  0.2797397  0.4999998    0.00000       Uiso       1.00
       C20          C  0.1154817  0.3174756  0.4999998    0.00000       Uiso       1.00
       C21          C  0.1508818  0.3698594  0.4999998    0.00000       Uiso       1.00
       C22          C  0.2036759  0.3869276  0.4999998    0.00000       Uiso       1.00
       C23          C  0.2178463  0.3491917  0.4999998    0.00000       Uiso       1.00
       C24          C  0.1824463  0.2968079  0.4999998    0.00000       Uiso       1.00
       C25          C  0.2423647  0.4388214  0.4999998    0.00000       Uiso       1.00
       C26          C  0.0909633  0.2278458  0.4999998    0.00000       Uiso       1.00
        O1          O  0.7372699  0.9363337  0.4999998    0.00000       Uiso       1.00
        O2          O  0.5960642  0.7303286  0.4999998    0.00000       Uiso       1.00
        O1          O  0.0636671  0.8009370  0.4999998    0.00000       Uiso       1.00
        O2          O  0.2696722  0.8657364  0.4999998    0.00000       Uiso       1.00
        O1          O  0.1990638  0.2627308  0.4999998    0.00000       Uiso       1.00
        O2          O  0.1342644  0.4039366  0.4999998    0.00000       Uiso       1.00
       C27          C  0.7305093  0.9795452  0.4999998    0.00000       Uiso       1.00
       C29          C  0.6028249  0.6871172  0.4999998    0.00000       Uiso       1.00
       C30          C  0.5507371  0.6385799  0.4999998    0.00000       Uiso       1.00
       C27          C  0.0204555  0.7509649  0.4999998    0.00000       Uiso       1.00
       C29          C  0.3128836  0.9157085  0.4999998    0.00000       Uiso       1.00
       C30          C  0.3614208  0.9121580  0.4999998    0.00000       Uiso       1.00
       C27          C  0.2490359  0.2694914  0.4999998    0.00000       Uiso       1.00
       C28          C  0.2454853  0.2174036  0.4999998    0.00000       Uiso       1.00
       C29          C  0.0842923  0.3971759  0.4999998    0.00000       Uiso       1.00
       C30          C  0.0878428  0.4492636  0.4999998    0.00000       Uiso       1.00
       C28          C  0.7825971  0.0280817  0.4999998    0.00000       Uiso       1.00
       C28          C  0.9719191  0.7545155  0.4999998    0.00000       Uiso       1.00
        N7          N  0.5222774  0.7552515  0.4999998    0.00000       Uiso       1.00
        N8          N  0.8110566  0.9114107  0.4999998    0.00000       Uiso       1.00
        N9          N  0.4749258  0.7427154  0.4999998    0.00000       Uiso       1.00
       N10          N  0.8584085  0.9239476  0.4999998    0.00000       Uiso       1.00
        N7          N  0.2447492  0.7670267  0.4999998    0.00000       Uiso       1.00
        N8          N  0.0885900  0.8996467  0.4999998    0.00000       Uiso       1.00
        N9          N  0.2572853  0.7322112  0.4999998    0.00000       Uiso       1.00
       N10          N  0.0760532  0.9344617  0.4999998    0.00000       Uiso       1.00
        N7          N  0.2329741  0.4777233  0.4999998    0.00000       Uiso       1.00
        N8          N  0.1003541  0.1889441  0.4999998    0.00000       Uiso       1.00
        N9          N  0.2677896  0.5250749  0.4999998    0.00000       Uiso       1.00
       N10          N  0.0655391  0.1415923  0.4999998    0.00000       Uiso       1.00
        C1          C  0.4369266  0.6942597  0.4999998    0.00000       Uiso       1.00
        C2          C  0.3057410  0.7426677  0.4999998    0.00000       Uiso       1.00
        C3          C  0.2573331  0.5630742  0.4999998    0.00000       Uiso       1.00
        C4          C  0.8964065  0.9724039  0.4999998    0.00000       Uiso       1.00
        C5          C  0.0275969  0.9240034  0.4999998    0.00000       Uiso       1.00
        C6          C  0.0759974  0.1035942  0.4999998    0.00000       Uiso       1.00
        H1          H  0.6932299  0.7712219  0.4999998    0.00000       Uiso       1.00
        H2          H  0.2287788  0.9220087  0.4999998    0.00000       Uiso       1.00
        H3          H  0.0779920  0.3067709  0.4999998    0.00000       Uiso       1.00
        H4          H  0.6401042  0.8954402  0.4999998    0.00000       Uiso       1.00
        H5          H  0.1045605  0.7446648  0.4999998    0.00000       Uiso       1.00
        H6          H  0.2553360  0.3598965  0.4999998    0.00000       Uiso       1.00
        H7          H  0.4460868  0.6661925  0.4999998    0.00000       Uiso       1.00
        H8          H  0.3338082  0.7798951  0.4999998    0.00000       Uiso       1.00
        H9          H  0.2201057  0.5539140  0.4999998    0.00000       Uiso       1.00
       H10          H  0.8872450  0.0004693  0.4999998    0.00000       Uiso       1.00
       H11          H  0.9995314  0.8867756  0.4999998    0.00000       Uiso       1.00
       H12          H  0.1132251  0.1127558  0.4999998    0.00000       Uiso       1.00
        H1          H  0.8032563  0.9382691  0.4999998    0.00000       Uiso       1.00
        H2          H  0.5300775  0.7283930  0.4999998    0.00000       Uiso       1.00
        H3          H  0.7093812  0.9790013  0.7158591    0.00000       Uiso       1.00
        H4          H  0.7093812  0.9790013  0.2841407    0.00000       Uiso       1.00
        H5          H  0.6239531  0.6876611  0.7158591    0.00000       Uiso       1.00
        H6          H  0.6239531  0.6876611  0.2841407    0.00000       Uiso       1.00
        H7          H  0.5292633  0.6374735  0.7151815    0.00000       Uiso       1.00
        H8          H  0.5292633  0.6374735  0.2848182    0.00000       Uiso       1.00
        C1          C  0.5572223  0.5916825  0.4999998    0.00000       Uiso       1.00
        S1          S  0.4912977  0.5442479  0.4999998    0.00000       Uiso       1.00
        C2          C  0.5042599  0.4940453  0.4194829    0.00000       Uiso       1.00
        C3          C  0.4555833  0.4435999  0.3803477    0.00000       Uiso       1.00
        H9          H  0.5751221  0.5898432  0.7402018    0.00000       Uiso       1.00
       H10          H  0.5827658  0.5944623  0.2883732    0.00000       Uiso       1.00
       H11          H  0.5273905  0.4913770  0.6291349    0.00000       Uiso       1.00
       H12          H  0.5270640  0.5029176  0.1838344    0.00000       Uiso       1.00
       H13          H  0.4323453  0.4444861  0.1652085    0.00000       Uiso       1.00
       H14          H  0.4324021  0.4320321  0.6153271    0.00000       Uiso       1.00
       H15          H  0.4721233  0.4186008  0.3277835    0.00000       Uiso       1.00
        H1          H  0.0617317  0.8649880  0.4999998    0.00000       Uiso       1.00
        H2          H  0.2716078  0.8016852  0.4999998    0.00000       Uiso       1.00
        H3          H  0.0209995  0.7303807  0.7158591    0.00000       Uiso       1.00
        H4          H  0.0209995  0.7303807  0.2841407    0.00000       Uiso       1.00
        H5          H  0.3123397  0.9362927  0.7158591    0.00000       Uiso       1.00
        H6          H  0.3123397  0.9362927  0.2841407    0.00000       Uiso       1.00
        H7          H  0.3625273  0.8917906  0.7151815    0.00000       Uiso       1.00
        H8          H  0.3625273  0.8917906  0.2848182    0.00000       Uiso       1.00
        C1          C  0.4083183  0.9655406  0.4999998    0.00000       Uiso       1.00
        S1          S  0.4557528  0.9470506  0.4999998    0.00000       Uiso       1.00
        C2          C  0.5059555  1.0102154  0.4194829    0.00000       Uiso       1.00
        C3          C  0.5564008  1.0119841  0.3803477    0.00000       Uiso       1.00
        H9          H  0.4101576  0.9852797  0.7402018    0.00000       Uiso       1.00
       H10          H  0.4055384  0.9883041  0.2883732    0.00000       Uiso       1.00
       H11          H  0.5086238  1.0360142  0.6291349    0.00000       Uiso       1.00
       H12          H  0.4970832  1.0241473  0.1838344    0.00000       Uiso       1.00
       H13          H  0.5555147  0.9878600  0.1652085    0.00000       Uiso       1.00
       H14          H  0.5679687  1.0003707  0.6153271    0.00000       Uiso       1.00
       H15          H  0.5814000  1.0535233  0.3277835    0.00000       Uiso       1.00
        H1          H  0.1350127  0.1967444  0.4999998    0.00000       Uiso       1.00
        H2          H  0.1983155  0.4699233  0.4999998    0.00000       Uiso       1.00
        H3          H  0.2696202  0.2906196  0.7158591    0.00000       Uiso       1.00
        H4          H  0.2696202  0.2906196  0.2841407    0.00000       Uiso       1.00
        H5          H  0.2251178  0.1959298  0.2848182    0.00000       Uiso       1.00
        H6          H  0.2251178  0.1959298  0.7151815    0.00000       Uiso       1.00
        H7          H  0.0637080  0.3760477  0.7158591    0.00000       Uiso       1.00
        H8          H  0.0637080  0.3760477  0.2841407    0.00000       Uiso       1.00
        H9          H  0.1082102  0.4707375  0.7151815    0.00000       Uiso       1.00
       H10          H  0.1082102  0.4707375  0.2848182    0.00000       Uiso       1.00
        C1          C  0.2988678  0.2238887  0.4999998    0.00000       Uiso       1.00
        S1          S  0.2803776  0.1579640  0.4999998    0.00000       Uiso       1.00
        C2          C  0.3435424  0.1709260  0.4194829    0.00000       Uiso       1.00
        C3          C  0.3453110  0.1222493  0.3803477    0.00000       Uiso       1.00
       H11          H  0.3186069  0.2417884  0.7402018    0.00000       Uiso       1.00
       H12          H  0.3216315  0.2494320  0.2883732    0.00000       Uiso       1.00
       H13          H  0.3693413  0.1940565  0.6291349    0.00000       Uiso       1.00
       H14          H  0.3574743  0.1937301  0.1838344    0.00000       Uiso       1.00
       H15          H  0.3211868  0.0990114  0.1652085    0.00000       Uiso       1.00
       H16          H  0.3336976  0.0990681  0.6153271    0.00000       Uiso       1.00
       H17          H  0.3868501  0.1387892  0.3277835    0.00000       Uiso       1.00
        C4          C  0.0344602  0.4427784  0.4999998    0.00000       Uiso       1.00
        S2          S  0.0529502  0.5087031  0.4999998    0.00000       Uiso       1.00
        C5          C -0.0102146  0.4957409  0.4194829    0.00000       Uiso       1.00
        C6          C -0.0119834  0.5444174  0.3803477    0.00000       Uiso       1.00
       H18          H  0.0147211  0.4248787  0.7402018    0.00000       Uiso       1.00
       H19          H  0.0116966  0.4172350  0.2883732    0.00000       Uiso       1.00
       H20          H -0.0360135  0.4726103  0.6291349    0.00000       Uiso       1.00
       H21          H -0.0241465  0.4729367  0.1838344    0.00000       Uiso       1.00
       H22          H  0.0121407  0.5676554  0.1652085    0.00000       Uiso       1.00
       H23          H -0.0003700  0.5675987  0.6153271    0.00000       Uiso       1.00
       H24          H -0.0535225  0.5278775  0.3277835    0.00000       Uiso       1.00
        H1          H  0.8040709  0.0291880  0.2848182    0.00000       Uiso       1.00
        H2          H  0.8040709  0.0291880  0.7151815    0.00000       Uiso       1.00
        C1          C  0.7761121  0.0749792  0.4999998    0.00000       Uiso       1.00
        S1          S  0.8420368  0.1224136  0.4999998    0.00000       Uiso       1.00
        C2          C  0.8290748  0.1726164  0.4194829    0.00000       Uiso       1.00
        C3          C  0.8777515  0.2230617  0.3803477    0.00000       Uiso       1.00
        H3          H  0.7582123  0.0768186  0.7402018    0.00000       Uiso       1.00
        H4          H  0.7505687  0.0721994  0.2883732    0.00000       Uiso       1.00
        H5          H  0.8059443  0.1752847  0.6291349    0.00000       Uiso       1.00
        H6          H  0.8062707  0.1637442  0.1838344    0.00000       Uiso       1.00
        H7          H  0.9009894  0.2221754  0.1652085    0.00000       Uiso       1.00
        H8          H  0.9009326  0.2346294  0.6153271    0.00000       Uiso       1.00
        H9          H  0.8612115  0.2480609  0.3277835    0.00000       Uiso       1.00
        H1          H  0.9708127  0.7748829  0.2848182    0.00000       Uiso       1.00
        H2          H  0.9708127  0.7748829  0.7151815    0.00000       Uiso       1.00
        C1          C  0.9250216  0.7011330  0.4999998    0.00000       Uiso       1.00
        S1          S  0.8775871  0.7196231  0.4999998    0.00000       Uiso       1.00
        C2          C  0.8273844  0.6564584  0.4194829    0.00000       Uiso       1.00
        C3          C  0.7769391  0.6546898  0.3803477    0.00000       Uiso       1.00
        H3          H  0.9231822  0.6813938  0.7402018    0.00000       Uiso       1.00
        H4          H  0.9278014  0.6783693  0.2883732    0.00000       Uiso       1.00
        H5          H  0.8247160  0.6306595  0.6291349    0.00000       Uiso       1.00
        H6          H  0.8362566  0.6425265  0.1838344    0.00000       Uiso       1.00
        H7          H  0.7778254  0.6788139  0.1652085    0.00000       Uiso       1.00
        H8          H  0.7653713  0.6663032  0.6153271    0.00000       Uiso       1.00
        H9          H  0.7519399  0.6131507  0.3277835    0.00000       Uiso       1.00
        O3          O  0.7840125  0.8291655  0.4999998    0.00000       Uiso       1.00
        O4          O  0.5493219  0.8374969  0.4999998    0.00000       Uiso       1.00
        O3          O  0.1708353  0.9548478  0.4999998    0.00000       Uiso       1.00
        O4          O  0.1625039  0.7118258  0.4999998    0.00000       Uiso       1.00
        O3          O  0.0451530  0.2159883  0.4999998    0.00000       Uiso       1.00
        O4          O  0.2881750  0.4506788  0.4999998    0.00000       Uiso       1.00
