data_crystal
 
_cell_length_a    30.52310
_cell_length_b    30.52310
_cell_length_c    4.09300
_cell_angle_alpha 90.00000
_cell_angle_beta  90.00000
_cell_angle_gamma 120.00000
 
_symmetry_space_group_name_Hall 'P 1'
_symmetry_space_group_name_H-M  'P 1'
 
loop_
_symmetry_equiv_pos_as_xyz
 'x,y,z' 
 
loop_
_atom_site_label
_atom_site_type_symbol
_atom_site_fract_x
_atom_site_fract_y
_atom_site_fract_z
_atom_site_charge
C          C       0.38559   0.68110   0.50000   0.0000000000
C          C       0.31890   0.70448   0.50000   0.0000000000
C          C       0.29552   0.61441   0.50000   0.0000000000
C          C       0.37047   0.71801   0.50000   0.0000000000
C          C       0.28199   0.65246   0.50000   0.0000000000
C          C       0.34754   0.62953   0.50000   0.0000000000
H          H       0.39755   0.75561   0.50000   0.0000000000
H          H       0.24439   0.64194   0.50000   0.0000000000
H          H       0.35806   0.60245   0.50000   0.0000000000
C          C       0.94775   0.98556   0.50000   0.0000000000
C          C       0.96287   0.94866   0.50000   0.0000000000
C          C       0.01444   0.96219   0.50000   0.0000000000
C          C       0.03781   0.05225   0.50000   0.0000000000
C          C       0.05134   0.01421   0.50000   0.0000000000
C          C       0.98579   0.03713   0.50000   0.0000000000
H          H       0.97527   0.06421   0.50000   0.0000000000
H          H       0.93579   0.91106   0.50000   0.0000000000
H          H       0.08894   0.02473   0.50000   0.0000000000
C          C       0.72026   0.84991   0.50000   0.0000000000
C          C       0.68253   0.79801   0.50000   0.0000000000
C          C       0.63014   0.78102   0.50000   0.0000000000
C          C       0.61307   0.81675   0.50000   0.0000000000
C          C       0.65081   0.86866   0.50000   0.0000000000
C          C       0.70319   0.88564   0.50000   0.0000000000
C          C       0.56118   0.80354   0.50000   0.0000000000
C          C       0.77215   0.86312   0.50000   0.0000000000
C          C       0.15009   0.87035   0.50000   0.0000000000
C          C       0.20199   0.88452   0.50000   0.0000000000
C          C       0.21898   0.84912   0.50000   0.0000000000
C          C       0.18325   0.79632   0.50000   0.0000000000
C          C       0.13135   0.78215   0.50000   0.0000000000
C          C       0.11436   0.81755   0.50000   0.0000000000
C          C       0.19646   0.75764   0.50000   0.0000000000
C          C       0.13688   0.90904   0.50000   0.0000000000
C          C       0.12965   0.27974   0.50000   0.0000000000
C          C       0.11548   0.31748   0.50000   0.0000000000
C          C       0.15088   0.36986   0.50000   0.0000000000
C          C       0.20368   0.38693   0.50000   0.0000000000
C          C       0.21785   0.34919   0.50000   0.0000000000
C          C       0.18245   0.29681   0.50000   0.0000000000
C          C       0.24236   0.43882   0.50000   0.0000000000
C          C       0.09096   0.22785   0.50000   0.0000000000
O          O       0.73727   0.93633   0.50000   0.0000000000
O          O       0.59606   0.73033   0.50000   0.0000000000
O          O       0.06367   0.80094   0.50000   0.0000000000
O          O       0.26967   0.86574   0.50000   0.0000000000
O          O       0.19906   0.26273   0.50000   0.0000000000
O          O       0.13426   0.40394   0.50000   0.0000000000
C          C       0.73051   0.97955   0.50000   0.0000000000
C          C       0.60282   0.68712   0.50000   0.0000000000
C          C       0.55074   0.63858   0.50000   0.0000000000
C          C       0.02046   0.75096   0.50000   0.0000000000
C          C       0.31288   0.91571   0.50000   0.0000000000
C          C       0.36142   0.91216   0.50000   0.0000000000
C          C       0.24904   0.26949   0.50000   0.0000000000
C          C       0.24549   0.21740   0.50000   0.0000000000
C          C       0.08429   0.39718   0.50000   0.0000000000
C          C       0.08784   0.44926   0.50000   0.0000000000
C          C       0.78260   0.02808   0.50000   0.0000000000
C          C       0.97192   0.75452   0.50000   0.0000000000
N          N       0.52228   0.75525   0.50000   0.0000000000
N          N       0.81106   0.91141   0.50000   0.0000000000
N          N       0.47493   0.74272   0.50000   0.0000000000
N          N       0.85841   0.92395   0.50000   0.0000000000
N          N       0.24475   0.76703   0.50000   0.0000000000
N          N       0.08859   0.89965   0.50000   0.0000000000
N          N       0.25729   0.73221   0.50000   0.0000000000
N          N       0.07605   0.93446   0.50000   0.0000000000
N          N       0.23297   0.47772   0.50000   0.0000000000
N          N       0.10035   0.18894   0.50000   0.0000000000
N          N       0.26779   0.52507   0.50000   0.0000000000
N          N       0.06554   0.14159   0.50000   0.0000000000
C          C       0.43693   0.69426   0.50000   0.0000000000
C          C       0.30574   0.74267   0.50000   0.0000000000
C          C       0.25733   0.56307   0.50000   0.0000000000
C          C       0.89641   0.97240   0.50000   0.0000000000
C          C       0.02760   0.92400   0.50000   0.0000000000
C          C       0.07600   0.10359   0.50000   0.0000000000
H          H       0.69323   0.77122   0.50000   0.0000000000
H          H       0.22878   0.92201   0.50000   0.0000000000
H          H       0.07799   0.30677   0.50000   0.0000000000
H          H       0.64010   0.89544   0.50000   0.0000000000
H          H       0.10456   0.74466   0.50000   0.0000000000
H          H       0.25534   0.35990   0.50000   0.0000000000
H          H       0.44609   0.66619   0.50000   0.0000000000
H          H       0.33381   0.77990   0.50000   0.0000000000
H          H       0.22011   0.55391   0.50000   0.0000000000
H          H       0.88724   0.00047   0.50000   0.0000000000
H          H       0.99953   0.88678   0.50000   0.0000000000
H          H       0.11323   0.11276   0.50000   0.0000000000
H          H       0.80326   0.93827   0.50000   0.0000000000
H          H       0.53008   0.72839   0.50000   0.0000000000
H          H       0.70938   0.97900   0.71586   0.0000000000
H          H       0.70938   0.97900   0.28414   0.0000000000
H          H       0.62395   0.68766   0.71586   0.0000000000
H          H       0.62395   0.68766   0.28414   0.0000000000
H          H       0.52926   0.63747   0.71518   0.0000000000
H          H       0.52926   0.63747   0.28482   0.0000000000
C          C       0.55722   0.59168   0.50000   0.0000000000
S          S       0.49130   0.54425   0.50000   0.0000000000
C          C       0.50426   0.49405   0.41948   0.0000000000
C          C       0.45558   0.44360   0.38035   0.0000000000
H          H       0.57512   0.58984   0.74020   0.0000000000
H          H       0.58277   0.59446   0.28837   0.0000000000
H          H       0.52739   0.49138   0.62913   0.0000000000
H          H       0.52706   0.50292   0.18383   0.0000000000
H          H       0.43235   0.44449   0.16521   0.0000000000
H          H       0.43240   0.43203   0.61533   0.0000000000
H          H       0.47212   0.41860   0.32778   0.0000000000
H          H       0.06173   0.86499   0.50000   0.0000000000
H          H       0.27161   0.80169   0.50000   0.0000000000
H          H       0.02100   0.73038   0.71586   0.0000000000
H          H       0.02100   0.73038   0.28414   0.0000000000
H          H       0.31234   0.93629   0.71586   0.0000000000
H          H       0.31234   0.93629   0.28414   0.0000000000
H          H       0.36253   0.89179   0.71518   0.0000000000
H          H       0.36253   0.89179   0.28482   0.0000000000
C          C       0.40832   0.96554   0.50000   0.0000000000
S          S       0.45575   0.94705   0.50000   0.0000000000
C          C       0.50596   1.01022   0.41948   0.0000000000
C          C       0.55640   1.01198   0.38035   0.0000000000
H          H       0.41016   0.98528   0.74020   0.0000000000
H          H       0.40554   0.98830   0.28837   0.0000000000
H          H       0.50862   1.03601   0.62913   0.0000000000
H          H       0.49708   1.02415   0.18383   0.0000000000
H          H       0.55551   0.98786   0.16521   0.0000000000
H          H       0.56797   1.00037   0.61533   0.0000000000
H          H       0.58140   1.05352   0.32778   0.0000000000
H          H       0.13501   0.19674   0.50000   0.0000000000
H          H       0.19832   0.46992   0.50000   0.0000000000
H          H       0.26962   0.29062   0.71586   0.0000000000
H          H       0.26962   0.29062   0.28414   0.0000000000
H          H       0.22512   0.19593   0.28482   0.0000000000
H          H       0.22512   0.19593   0.71518   0.0000000000
H          H       0.06371   0.37605   0.71586   0.0000000000
H          H       0.06371   0.37605   0.28414   0.0000000000
H          H       0.10821   0.47074   0.71518   0.0000000000
H          H       0.10821   0.47074   0.28482   0.0000000000
C          C       0.29887   0.22389   0.50000   0.0000000000
S          S       0.28038   0.15796   0.50000   0.0000000000
C          C       0.34354   0.17093   0.41948   0.0000000000
C          C       0.34531   0.12225   0.38035   0.0000000000
H          H       0.31861   0.24179   0.74020   0.0000000000
H          H       0.32163   0.24943   0.28837   0.0000000000
H          H       0.36934   0.19406   0.62913   0.0000000000
H          H       0.35747   0.19373   0.18383   0.0000000000
H          H       0.32119   0.09901   0.16521   0.0000000000
H          H       0.33370   0.09907   0.61533   0.0000000000
H          H       0.38685   0.13879   0.32778   0.0000000000
C          C       0.03446   0.44278   0.50000   0.0000000000
S          S       0.05295   0.50870   0.50000   0.0000000000
C          C      -0.01021   0.49574   0.41948   0.0000000000
C          C      -0.01198   0.54442   0.38035   0.0000000000
H          H       0.01472   0.42488   0.74020   0.0000000000
H          H       0.01170   0.41724   0.28837   0.0000000000
H          H      -0.03601   0.47261   0.62913   0.0000000000
H          H      -0.02415   0.47294   0.18383   0.0000000000
H          H       0.01214   0.56766   0.16521   0.0000000000
H          H      -0.00037   0.56760   0.61533   0.0000000000
H          H      -0.05352   0.52788   0.32778   0.0000000000
H          H       0.80407   0.02919   0.28482   0.0000000000
H          H       0.80407   0.02919   0.71518   0.0000000000
C          C       0.77611   0.07498   0.50000   0.0000000000
S          S       0.84204   0.12241   0.50000   0.0000000000
C          C       0.82907   0.17262   0.41948   0.0000000000
C          C       0.87775   0.22306   0.38035   0.0000000000
H          H       0.75821   0.07682   0.74020   0.0000000000
H          H       0.75057   0.07220   0.28837   0.0000000000
H          H       0.80594   0.17528   0.62913   0.0000000000
H          H       0.80627   0.16374   0.18383   0.0000000000
H          H       0.90099   0.22218   0.16521   0.0000000000
H          H       0.90093   0.23463   0.61533   0.0000000000
H          H       0.86121   0.24806   0.32778   0.0000000000
H          H       0.97081   0.77488   0.28482   0.0000000000
H          H       0.97081   0.77488   0.71518   0.0000000000
C          C       0.92502   0.70113   0.50000   0.0000000000
S          S       0.87759   0.71962   0.50000   0.0000000000
C          C       0.82738   0.65646   0.41948   0.0000000000
C          C       0.77694   0.65469   0.38035   0.0000000000
H          H       0.92318   0.68139   0.74020   0.0000000000
H          H       0.92780   0.67837   0.28837   0.0000000000
H          H       0.82472   0.63066   0.62913   0.0000000000
H          H       0.83626   0.64253   0.18383   0.0000000000
H          H       0.77783   0.67881   0.16521   0.0000000000
H          H       0.76537   0.66630   0.61533   0.0000000000
H          H       0.75194   0.61315   0.32778   0.0000000000
O          O       0.78401   0.82917   0.50000   0.0000000000
O          O       0.54932   0.83750   0.50000   0.0000000000
O          O       0.17084   0.95485   0.50000   0.0000000000
O          O       0.16250   0.71183   0.50000   0.0000000000
O          O       0.04515   0.21599   0.50000   0.0000000000
O          O       0.28818   0.45068   0.50000   0.0000000000
