data_COF-SDU1
_audit_creation_date              0000-00-00
_audit_creation_method            'LanYouShi'
_symmetry_space_group_name_H-M    'P1'
_cell_length_a                    49.5558014
_cell_length_b                    49.5558014
_cell_length_c                    3.4000001
_cell_angle_alpha                 90.0000000
_cell_angle_beta                  90.0000000
_cell_angle_gamma                 120.0000000
loop_
_atom_site_label
_atom_site_type_symbol
_atom_site_fract_x
_atom_site_fract_y
_atom_site_fract_z
_atom_site_U_iso_or_equiv
_atom_site_adp_type
_atom_site_occupancy
        N1          N  0.1292526  0.5606808  0.5000000    0.00000       Uiso       1.00
        N2          N  0.4393195  0.5685721  0.5000000    0.00000       Uiso       1.00
        N3          N  0.4314282  0.8707477  0.5000000    0.00000       Uiso       1.00
        N4          N  0.8707477  0.4393196  0.5000000    0.00000       Uiso       1.00
        N5          N  0.5606808  0.4314282  0.5000000    0.00000       Uiso       1.00
        N6          N  0.5685722  0.1292526  0.5000000    0.00000       Uiso       1.00
        N7          N  0.0086598  0.5133796  0.5000000    0.00000       Uiso       1.00
        N8          N  0.4866208  0.4952806  0.5000000    0.00000       Uiso       1.00
        N9          N  0.5047198  0.9913405  0.5000000    0.00000       Uiso       1.00
        C1          C  0.9913406  0.4866208  0.5000000    0.00000       Uiso       1.00
        C2          C  0.5133796  0.5047198  0.5000000    0.00000       Uiso       1.00
        C3          C  0.4952806  0.0086598  0.5000000    0.00000       Uiso       1.00
        H1          H  1.0015179  1.4704609  0.5000000    0.00000       Uiso       1.00
        H2          H  0.5295398  1.5310577  0.5000000    0.00000       Uiso       1.00
        H3          H  0.4689429  0.9984828  0.5000000    0.00000       Uiso       1.00
        C1          C  0.1505349  0.5906392  0.5000000    0.00000       Uiso       1.00
        C2          C  0.0988270  0.5493987  0.5000000    0.00000       Uiso       1.00
        C3          C  0.0863123  0.5668240  0.5000000    0.00000       Uiso       1.00
        C4          C  0.0566203  0.5546333  0.5000000    0.00000       Uiso       1.00
        C5          C  0.0389127  0.5250698  0.5000000    0.00000       Uiso       1.00
        C6          C  0.0511545  0.5075901  0.5000000    0.00000       Uiso       1.00
        C7          C  0.0808012  0.5196730  0.5000000    0.00000       Uiso       1.00
        C1          C  0.4093611  0.5598960  0.5000000    0.00000       Uiso       1.00
        C2          C  0.4506017  0.5494287  0.5000000    0.00000       Uiso       1.00
        C3          C  0.4331764  0.5194888  0.5000000    0.00000       Uiso       1.00
        C4          C  0.4453670  0.5019874  0.5000000    0.00000       Uiso       1.00
        C5          C  0.4749305  0.5138432  0.5000000    0.00000       Uiso       1.00
        C6          C  0.4924103  0.5435647  0.5000000    0.00000       Uiso       1.00
        C7          C  0.4803273  0.5611285  0.5000000    0.00000       Uiso       1.00
        C1          C  0.4401043  0.8494654  0.5000000    0.00000       Uiso       1.00
        C2          C  0.4505717  0.9011734  0.5000000    0.00000       Uiso       1.00
        C3          C  0.4805116  0.9136880  0.5000000    0.00000       Uiso       1.00
        C4          C  0.4980130  0.9433800  0.5000000    0.00000       Uiso       1.00
        C5          C  0.4861571  0.9610876  0.5000000    0.00000       Uiso       1.00
        C6          C  0.4564356  0.9488459  0.5000000    0.00000       Uiso       1.00
        C7          C  0.4388719  0.9191992  0.5000000    0.00000       Uiso       1.00
        C1          C  0.8494655  0.4093611  0.5000000    0.00000       Uiso       1.00
        C2          C  0.9011734  0.4506017  0.5000000    0.00000       Uiso       1.00
        C3          C  0.9136879  0.4331764  0.5000000    0.00000       Uiso       1.00
        C4          C  0.9433800  0.4453670  0.5000000    0.00000       Uiso       1.00
        C5          C  0.9610876  0.4749305  0.5000000    0.00000       Uiso       1.00
        C6          C  0.9488458  0.4924102  0.5000000    0.00000       Uiso       1.00
        C7          C  0.9191992  0.4803273  0.5000000    0.00000       Uiso       1.00
        C1          C  0.5906392  0.4401043  0.5000000    0.00000       Uiso       1.00
        C2          C  0.5493987  0.4505717  0.5000000    0.00000       Uiso       1.00
        C3          C  0.5668240  0.4805116  0.5000000    0.00000       Uiso       1.00
        C4          C  0.5546333  0.4980130  0.5000000    0.00000       Uiso       1.00
        C5          C  0.5250698  0.4861571  0.5000000    0.00000       Uiso       1.00
        C6          C  0.5075901  0.4564356  0.5000000    0.00000       Uiso       1.00
        C7          C  0.5196730  0.4388719  0.5000000    0.00000       Uiso       1.00
        C1          C  0.5598960  0.1505349  0.5000000    0.00000       Uiso       1.00
        C2          C  0.5494287  0.0988270  0.5000000    0.00000       Uiso       1.00
        C3          C  0.5194888  0.0863123  0.5000000    0.00000       Uiso       1.00
        C4          C  0.5019874  0.0566203  0.5000000    0.00000       Uiso       1.00
        C5          C  0.5138432  0.0389127  0.5000000    0.00000       Uiso       1.00
        C6          C  0.5435647  0.0511545  0.5000000    0.00000       Uiso       1.00
        C7          C  0.5611285  0.0808012  0.5000000    0.00000       Uiso       1.00
        H1          H  0.1429534  0.6056309  0.5000000    0.00000       Uiso       1.00
        H2          H  0.0988396  0.5897142  0.5000000    0.00000       Uiso       1.00
        H3          H  0.0898021  0.5057828  0.5000000    0.00000       Uiso       1.00
        H4          H  0.0472221  0.5681714  0.5000000    0.00000       Uiso       1.00
        H5          H  0.0376689  0.4846570  0.5000000    0.00000       Uiso       1.00
        H1          H  0.3943694  0.5373228  0.5000000    0.00000       Uiso       1.00
        H2          H  0.4102861  0.5091257  0.5000000    0.00000       Uiso       1.00
        H3          H  0.4942175  0.5840196  0.5000000    0.00000       Uiso       1.00
        H4          H  0.4318289  0.4790509  0.5000000    0.00000       Uiso       1.00
        H5          H  0.5153433  0.5530122  0.5000000    0.00000       Uiso       1.00
        H1          H  0.4626776  0.8570470  0.5000000    0.00000       Uiso       1.00
        H2          H  0.4908746  0.9011607  0.5000000    0.00000       Uiso       1.00
        H3          H  0.4159808  0.9101983  0.5000000    0.00000       Uiso       1.00
        H4          H  0.5209494  0.9527783  0.5000000    0.00000       Uiso       1.00
        H5          H  0.4469882  0.9623314  0.5000000    0.00000       Uiso       1.00
        H1          H  0.8570470  0.3943694  0.5000000    0.00000       Uiso       1.00
        H2          H  0.9011608  0.4102861  0.5000000    0.00000       Uiso       1.00
        H3          H  0.9101983  0.4942175  0.5000000    0.00000       Uiso       1.00
        H4          H  0.9527782  0.4318289  0.5000000    0.00000       Uiso       1.00
        H5          H  0.9623315  0.5153433  0.5000000    0.00000       Uiso       1.00
        H1          H  0.6056309  0.4626776  0.5000000    0.00000       Uiso       1.00
        H2          H  0.5897142  0.4908746  0.5000000    0.00000       Uiso       1.00
        H3          H  0.5057828  0.4159808  0.5000000    0.00000       Uiso       1.00
        H4          H  0.5681715  0.5209494  0.5000000    0.00000       Uiso       1.00
        H5          H  0.4846570  0.4469882  0.5000000    0.00000       Uiso       1.00
        H1          H  0.5373228  0.1429534  0.5000000    0.00000       Uiso       1.00
        H2          H  0.5091257  0.0988396  0.5000000    0.00000       Uiso       1.00
        H3          H  0.5840196  0.0898021  0.5000000    0.00000       Uiso       1.00
        H4          H  0.4790509  0.0472221  0.5000000    0.00000       Uiso       1.00
        H5          H  0.5530122  0.0376689  0.5000000    0.00000       Uiso       1.00
       C43          C  0.3627796  0.6920182  0.5000000    0.00000       Uiso       1.00
       C43          C  0.3079821  0.6707617  0.5000000    0.00000       Uiso       1.00
       C43          C  0.3292387  0.6372208  0.5000000    0.00000       Uiso       1.00
       C43          C  0.6372208  0.3079821  0.5000000    0.00000       Uiso       1.00
       C43          C  0.6920182  0.3292387  0.5000000    0.00000       Uiso       1.00
       C43          C  0.6707617  0.3627796  0.5000000    0.00000       Uiso       1.00
       N13          N  0.3583828  0.6626087  0.5000000    0.00000       Uiso       1.00
       N13          N  0.3373916  0.6957744  0.5000000    0.00000       Uiso       1.00
       N13          N  0.3042259  0.6416175  0.5000000    0.00000       Uiso       1.00
       N13          N  0.6416175  0.3373916  0.5000000    0.00000       Uiso       1.00
       N13          N  0.6626087  0.3042259  0.5000000    0.00000       Uiso       1.00
       N13          N  0.6957744  0.3583828  0.5000000    0.00000       Uiso       1.00
        O1          O  0.3937072  0.7171930  0.5000000    0.00000       Uiso       1.00
        O2          O  0.2828074  0.6765146  0.5000000    0.00000       Uiso       1.00
        O3          O  0.3234857  0.6062931  0.5000000    0.00000       Uiso       1.00
        O1          O  0.6062931  0.2828074  0.5000000    0.00000       Uiso       1.00
        O2          O  0.7171930  0.3234857  0.5000000    0.00000       Uiso       1.00
        O3          O  0.6765146  0.3937072  0.5000000    0.00000       Uiso       1.00
        C1          C  0.4029510  0.7493093  0.5000000    0.00000       Uiso       1.00
        C2          C  0.2506911  0.6536421  0.5000000    0.00000       Uiso       1.00
        C3          C  0.3463583  0.5970494  0.5000000    0.00000       Uiso       1.00
        C4          C  0.2378762  0.6206499  0.5000000    0.00000       Uiso       1.00
        C5          C  0.3793505  0.6172266  0.5000000    0.00000       Uiso       1.00
        C6          C  0.3827737  0.7621242  0.5000000    0.00000       Uiso       1.00
        C7          C  0.2053069  0.6005008  0.5000000    0.00000       Uiso       1.00
        C8          C  0.3994996  0.6048065  0.5000000    0.00000       Uiso       1.00
        C9          C  0.3951939  0.7946935  0.5000000    0.00000       Uiso       1.00
       C10          C  0.1847886  0.6125090  0.5000000    0.00000       Uiso       1.00
       C11          C  0.3874913  0.5722800  0.5000000    0.00000       Uiso       1.00
       C12          C  0.4277204  0.8152117  0.5000000    0.00000       Uiso       1.00
       C13          C  0.1973347  0.6451604  0.5000000    0.00000       Uiso       1.00
       C14          C  0.3548399  0.5521746  0.5000000    0.00000       Uiso       1.00
       C15          C  0.4478257  0.8026657  0.5000000    0.00000       Uiso       1.00
       C16          C  0.2298398  0.6653054  0.5000000    0.00000       Uiso       1.00
       C17          C  0.3346950  0.5645347  0.5000000    0.00000       Uiso       1.00
       C18          C  0.4354656  0.7701606  0.5000000    0.00000       Uiso       1.00
        C1          C  0.5970494  0.2506911  0.5000000    0.00000       Uiso       1.00
        C2          C  0.7493093  0.3463583  0.5000000    0.00000       Uiso       1.00
        C3          C  0.6536421  0.4029510  0.5000000    0.00000       Uiso       1.00
        C4          C  0.7621242  0.3793505  0.5000000    0.00000       Uiso       1.00
        C5          C  0.6206499  0.3827737  0.5000000    0.00000       Uiso       1.00
        C6          C  0.6172266  0.2378762  0.5000000    0.00000       Uiso       1.00
        C7          C  0.7946935  0.3994996  0.5000000    0.00000       Uiso       1.00
        C8          C  0.6005008  0.3951939  0.5000000    0.00000       Uiso       1.00
        C9          C  0.6048065  0.2053069  0.5000000    0.00000       Uiso       1.00
       C10          C  0.8152117  0.3874913  0.5000000    0.00000       Uiso       1.00
       C11          C  0.6125090  0.4277204  0.5000000    0.00000       Uiso       1.00
       C12          C  0.5722799  0.1847886  0.5000000    0.00000       Uiso       1.00
       C13          C  0.8026656  0.3548399  0.5000000    0.00000       Uiso       1.00
       C14          C  0.6451604  0.4478257  0.5000000    0.00000       Uiso       1.00
       C15          C  0.5521746  0.1973348  0.5000000    0.00000       Uiso       1.00
       C16          C  0.7701606  0.3346950  0.5000000    0.00000       Uiso       1.00
       C17          C  0.6653054  0.4354656  0.5000000    0.00000       Uiso       1.00
       C18          C  0.5645347  0.2298398  0.5000000    0.00000       Uiso       1.00
        H1          H  0.2516017  0.6093954  0.5000000    0.00000       Uiso       1.00
        H2          H  0.3906049  0.6422066  0.5000000    0.00000       Uiso       1.00
        H3          H  0.3577937  0.7483987  0.5000000    0.00000       Uiso       1.00
        H4          H  0.1961130  0.5754929  0.5000000    0.00000       Uiso       1.00
        H5          H  0.4245074  0.6206204  0.5000000    0.00000       Uiso       1.00
        H6          H  0.3793800  0.8038874  0.5000000    0.00000       Uiso       1.00
        H7          H  0.1821699  0.6550948  0.5000000    0.00000       Uiso       1.00
        H8          H  0.3449055  0.5270754  0.5000000    0.00000       Uiso       1.00
        H9          H  0.4729249  0.8178304  0.5000000    0.00000       Uiso       1.00
       H10          H  0.2389705  0.6902912  0.5000000    0.00000       Uiso       1.00
       H11          H  0.3097091  0.5486796  0.5000000    0.00000       Uiso       1.00
       H12          H  0.4513207  0.7610298  0.5000000    0.00000       Uiso       1.00
        H1          H  0.7483987  0.3906049  0.5000000    0.00000       Uiso       1.00
        H2          H  0.6093954  0.3577937  0.5000000    0.00000       Uiso       1.00
        H3          H  0.6422066  0.2516017  0.5000000    0.00000       Uiso       1.00
        H4          H  0.8038874  0.4245074  0.5000000    0.00000       Uiso       1.00
        H5          H  0.5754929  0.3793800  0.5000000    0.00000       Uiso       1.00
        H6          H  0.6206204  0.1961130  0.5000000    0.00000       Uiso       1.00
        H7          H  0.8178304  0.3449055  0.5000000    0.00000       Uiso       1.00
        H8          H  0.6550949  0.4729249  0.5000000    0.00000       Uiso       1.00
        H9          H  0.5270754  0.1821699  0.5000000    0.00000       Uiso       1.00
       H10          H  0.7610298  0.3097091  0.5000000    0.00000       Uiso       1.00
       H11          H  0.6902912  0.4513207  0.5000000    0.00000       Uiso       1.00
       H12          H  0.5486796  0.2389705  0.5000000    0.00000       Uiso       1.00
