data_crystal
 
_cell_length_a    49.55580
_cell_length_b    49.55580
_cell_length_c    3.40000
_cell_angle_alpha 90.00000
_cell_angle_beta  90.00000
_cell_angle_gamma 120.00000
 
_symmetry_space_group_name_Hall 'P 1'
_symmetry_space_group_name_H-M  'P 1'
 
loop_
_symmetry_equiv_pos_as_xyz
 'x,y,z' 
 
loop_
_atom_site_label
_atom_site_type_symbol
_atom_site_fract_x
_atom_site_fract_y
_atom_site_fract_z
_atom_site_charge
N          N       0.12925   0.56068   0.50000   0.0000000000
N          N       0.43932   0.56857   0.50000   0.0000000000
N          N       0.43143   0.87075   0.50000   0.0000000000
N          N       0.87075   0.43932   0.50000   0.0000000000
N          N       0.56068   0.43143   0.50000   0.0000000000
N          N       0.56857   0.12925   0.50000   0.0000000000
N          N       0.00866   0.51338   0.50000   0.0000000000
N          N       0.48662   0.49528   0.50000   0.0000000000
N          N       0.50472   0.99134   0.50000   0.0000000000
C          C       0.99134   0.48662   0.50000   0.0000000000
C          C       0.51338   0.50472   0.50000   0.0000000000
C          C       0.49528   0.00866   0.50000   0.0000000000
H          H       1.00152   1.47046   0.50000   0.0000000000
H          H       0.52954   1.53106   0.50000   0.0000000000
H          H       0.46894   0.99848   0.50000   0.0000000000
C          C       0.15053   0.59064   0.50000   0.0000000000
C          C       0.09883   0.54940   0.50000   0.0000000000
C          C       0.08631   0.56682   0.50000   0.0000000000
C          C       0.05662   0.55463   0.50000   0.0000000000
C          C       0.03891   0.52507   0.50000   0.0000000000
C          C       0.05115   0.50759   0.50000   0.0000000000
C          C       0.08080   0.51967   0.50000   0.0000000000
C          C       0.40936   0.55990   0.50000   0.0000000000
C          C       0.45060   0.54943   0.50000   0.0000000000
C          C       0.43318   0.51949   0.50000   0.0000000000
C          C       0.44537   0.50199   0.50000   0.0000000000
C          C       0.47493   0.51384   0.50000   0.0000000000
C          C       0.49241   0.54356   0.50000   0.0000000000
C          C       0.48033   0.56113   0.50000   0.0000000000
C          C       0.44010   0.84947   0.50000   0.0000000000
C          C       0.45057   0.90117   0.50000   0.0000000000
C          C       0.48051   0.91369   0.50000   0.0000000000
C          C       0.49801   0.94338   0.50000   0.0000000000
C          C       0.48616   0.96109   0.50000   0.0000000000
C          C       0.45644   0.94885   0.50000   0.0000000000
C          C       0.43887   0.91920   0.50000   0.0000000000
C          C       0.84947   0.40936   0.50000   0.0000000000
C          C       0.90117   0.45060   0.50000   0.0000000000
C          C       0.91369   0.43318   0.50000   0.0000000000
C          C       0.94338   0.44537   0.50000   0.0000000000
C          C       0.96109   0.47493   0.50000   0.0000000000
C          C       0.94885   0.49241   0.50000   0.0000000000
C          C       0.91920   0.48033   0.50000   0.0000000000
C          C       0.59064   0.44010   0.50000   0.0000000000
C          C       0.54940   0.45057   0.50000   0.0000000000
C          C       0.56682   0.48051   0.50000   0.0000000000
C          C       0.55463   0.49801   0.50000   0.0000000000
C          C       0.52507   0.48616   0.50000   0.0000000000
C          C       0.50759   0.45644   0.50000   0.0000000000
C          C       0.51967   0.43887   0.50000   0.0000000000
C          C       0.55990   0.15053   0.50000   0.0000000000
C          C       0.54943   0.09883   0.50000   0.0000000000
C          C       0.51949   0.08631   0.50000   0.0000000000
C          C       0.50199   0.05662   0.50000   0.0000000000
C          C       0.51384   0.03891   0.50000   0.0000000000
C          C       0.54356   0.05115   0.50000   0.0000000000
C          C       0.56113   0.08080   0.50000   0.0000000000
H          H       0.14295   0.60563   0.50000   0.0000000000
H          H       0.09884   0.58971   0.50000   0.0000000000
H          H       0.08980   0.50578   0.50000   0.0000000000
H          H       0.04722   0.56817   0.50000   0.0000000000
H          H       0.03767   0.48466   0.50000   0.0000000000
H          H       0.39437   0.53732   0.50000   0.0000000000
H          H       0.41029   0.50913   0.50000   0.0000000000
H          H       0.49422   0.58402   0.50000   0.0000000000
H          H       0.43183   0.47905   0.50000   0.0000000000
H          H       0.51534   0.55301   0.50000   0.0000000000
H          H       0.46268   0.85705   0.50000   0.0000000000
H          H       0.49087   0.90116   0.50000   0.0000000000
H          H       0.41598   0.91020   0.50000   0.0000000000
H          H       0.52095   0.95278   0.50000   0.0000000000
H          H       0.44699   0.96233   0.50000   0.0000000000
H          H       0.85705   0.39437   0.50000   0.0000000000
H          H       0.90116   0.41029   0.50000   0.0000000000
H          H       0.91020   0.49422   0.50000   0.0000000000
H          H       0.95278   0.43183   0.50000   0.0000000000
H          H       0.96233   0.51534   0.50000   0.0000000000
H          H       0.60563   0.46268   0.50000   0.0000000000
H          H       0.58971   0.49087   0.50000   0.0000000000
H          H       0.50578   0.41598   0.50000   0.0000000000
H          H       0.56817   0.52095   0.50000   0.0000000000
H          H       0.48466   0.44699   0.50000   0.0000000000
H          H       0.53732   0.14295   0.50000   0.0000000000
H          H       0.50913   0.09884   0.50000   0.0000000000
H          H       0.58402   0.08980   0.50000   0.0000000000
H          H       0.47905   0.04722   0.50000   0.0000000000
H          H       0.55301   0.03767   0.50000   0.0000000000
C          C       0.36278   0.69202   0.50000   0.0000000000
C          C       0.30798   0.67076   0.50000   0.0000000000
C          C       0.32924   0.63722   0.50000   0.0000000000
C          C       0.63722   0.30798   0.50000   0.0000000000
C          C       0.69202   0.32924   0.50000   0.0000000000
C          C       0.67076   0.36278   0.50000   0.0000000000
N          N       0.35838   0.66261   0.50000   0.0000000000
N          N       0.33739   0.69577   0.50000   0.0000000000
N          N       0.30423   0.64162   0.50000   0.0000000000
N          N       0.64162   0.33739   0.50000   0.0000000000
N          N       0.66261   0.30423   0.50000   0.0000000000
N          N       0.69577   0.35838   0.50000   0.0000000000
O          O       0.39371   0.71719   0.50000   0.0000000000
O          O       0.28281   0.67651   0.50000   0.0000000000
O          O       0.32349   0.60629   0.50000   0.0000000000
O          O       0.60629   0.28281   0.50000   0.0000000000
O          O       0.71719   0.32349   0.50000   0.0000000000
O          O       0.67651   0.39371   0.50000   0.0000000000
C          C       0.40295   0.74931   0.50000   0.0000000000
C          C       0.25069   0.65364   0.50000   0.0000000000
C          C       0.34636   0.59705   0.50000   0.0000000000
C          C       0.23788   0.62065   0.50000   0.0000000000
C          C       0.37935   0.61723   0.50000   0.0000000000
C          C       0.38277   0.76212   0.50000   0.0000000000
C          C       0.20531   0.60050   0.50000   0.0000000000
C          C       0.39950   0.60481   0.50000   0.0000000000
C          C       0.39519   0.79469   0.50000   0.0000000000
C          C       0.18479   0.61251   0.50000   0.0000000000
C          C       0.38749   0.57228   0.50000   0.0000000000
C          C       0.42772   0.81521   0.50000   0.0000000000
C          C       0.19733   0.64516   0.50000   0.0000000000
C          C       0.35484   0.55217   0.50000   0.0000000000
C          C       0.44783   0.80267   0.50000   0.0000000000
C          C       0.22984   0.66531   0.50000   0.0000000000
C          C       0.33470   0.56453   0.50000   0.0000000000
C          C       0.43547   0.77016   0.50000   0.0000000000
C          C       0.59705   0.25069   0.50000   0.0000000000
C          C       0.74931   0.34636   0.50000   0.0000000000
C          C       0.65364   0.40295   0.50000   0.0000000000
C          C       0.76212   0.37935   0.50000   0.0000000000
C          C       0.62065   0.38277   0.50000   0.0000000000
C          C       0.61723   0.23788   0.50000   0.0000000000
C          C       0.79469   0.39950   0.50000   0.0000000000
C          C       0.60050   0.39519   0.50000   0.0000000000
C          C       0.60481   0.20531   0.50000   0.0000000000
C          C       0.81521   0.38749   0.50000   0.0000000000
C          C       0.61251   0.42772   0.50000   0.0000000000
C          C       0.57228   0.18479   0.50000   0.0000000000
C          C       0.80267   0.35484   0.50000   0.0000000000
C          C       0.64516   0.44783   0.50000   0.0000000000
C          C       0.55217   0.19733   0.50000   0.0000000000
C          C       0.77016   0.33470   0.50000   0.0000000000
C          C       0.66531   0.43547   0.50000   0.0000000000
C          C       0.56453   0.22984   0.50000   0.0000000000
H          H       0.25160   0.60940   0.50000   0.0000000000
H          H       0.39060   0.64221   0.50000   0.0000000000
H          H       0.35779   0.74840   0.50000   0.0000000000
H          H       0.19611   0.57549   0.50000   0.0000000000
H          H       0.42451   0.62062   0.50000   0.0000000000
H          H       0.37938   0.80389   0.50000   0.0000000000
H          H       0.18217   0.65509   0.50000   0.0000000000
H          H       0.34491   0.52708   0.50000   0.0000000000
H          H       0.47292   0.81783   0.50000   0.0000000000
H          H       0.23897   0.69029   0.50000   0.0000000000
H          H       0.30971   0.54868   0.50000   0.0000000000
H          H       0.45132   0.76103   0.50000   0.0000000000
H          H       0.74840   0.39060   0.50000   0.0000000000
H          H       0.60940   0.35779   0.50000   0.0000000000
H          H       0.64221   0.25160   0.50000   0.0000000000
H          H       0.80389   0.42451   0.50000   0.0000000000
H          H       0.57549   0.37938   0.50000   0.0000000000
H          H       0.62062   0.19611   0.50000   0.0000000000
H          H       0.81783   0.34491   0.50000   0.0000000000
H          H       0.65509   0.47292   0.50000   0.0000000000
H          H       0.52708   0.18217   0.50000   0.0000000000
H          H       0.76103   0.30971   0.50000   0.0000000000
H          H       0.69029   0.45132   0.50000   0.0000000000
H          H       0.54868   0.23897   0.50000   0.0000000000
