data_crystal
 
_cell_length_a    31.85780
_cell_length_b    31.85780
_cell_length_c    3.60000
_cell_angle_alpha 90.00000
_cell_angle_beta  90.00000
_cell_angle_gamma 60.00000
 
_symmetry_space_group_name_Hall 'P 1'
_symmetry_space_group_name_H-M  'P 1'
 
loop_
_symmetry_equiv_pos_as_xyz
 'x,y,z' 
 
loop_
_atom_site_label
_atom_site_type_symbol
_atom_site_fract_x
_atom_site_fract_y
_atom_site_fract_z
_atom_site_charge
N          N       0.61594   0.58442   1.38889   0.0000000000
C          C       0.60501   0.63032   1.38889   0.0000000000
C          C       0.58413   0.56936   1.38889   0.0000000000
C          C       0.53788   0.59853   1.38889   0.0000000000
C          C       0.50861   0.58194   1.38889   0.0000000000
C          C       0.52468   0.53632   1.38889   0.0000000000
C          C       0.57058   0.50708   1.38889   0.0000000000
C          C       0.59993   0.52350   1.38889   0.0000000000
H          H       0.57032   0.65511   1.38889   0.0000000000
H          H       0.52354   0.63398   1.38889   0.0000000000
H          H       0.64881   0.55916   1.38889   0.0000000000
H          H       0.63524   0.50035   1.38889   0.0000000000
H          H       0.47320   0.60458   1.38889   0.0000000000
H          H       0.58344   0.47167   1.38889   0.0000000000
N          N       0.38406   0.41558   1.38889   0.0000000000
C          C       0.39499   0.36968   1.38889   0.0000000000
C          C       0.41587   0.43064   1.38889   0.0000000000
C          C       0.46212   0.40147   1.38889   0.0000000000
C          C       0.49139   0.41806   1.38889   0.0000000000
C          C       0.47532   0.46368   1.38889   0.0000000000
C          C       0.42942   0.49292   1.38889   0.0000000000
C          C       0.40007   0.47650   1.38889   0.0000000000
H          H       0.42968   0.34489   1.38889   0.0000000000
H          H       0.47646   0.36602   1.38889   0.0000000000
H          H       0.35119   0.44084   1.38889   0.0000000000
H          H       0.36476   0.49965   1.38889   0.0000000000
H          H       0.52680   0.39542   1.38889   0.0000000000
H          H       0.41656   0.52833   1.38889   0.0000000000
N          N       0.49376   0.52058   1.38889   0.0000000000
N          N       0.50624   0.47942   1.38889   0.0000000000
N          N       0.79964   0.61594   1.38889   0.0000000000
C          C       0.76467   0.60501   1.38889   0.0000000000
C          C       0.84651   0.58413   1.38889   0.0000000000
C          C       0.86359   0.53788   1.38889   0.0000000000
C          C       0.90944   0.50861   1.38889   0.0000000000
C          C       0.93900   0.52468   1.38889   0.0000000000
C          C       0.92234   0.57058   1.38889   0.0000000000
C          C       0.87656   0.59993   1.38889   0.0000000000
H          H       0.77458   0.57032   1.38889   0.0000000000
H          H       0.84248   0.52354   1.38889   0.0000000000
H          H       0.79203   0.64881   1.38889   0.0000000000
H          H       0.86441   0.63524   1.38889   0.0000000000
H          H       0.92223   0.47320   1.38889   0.0000000000
H          H       0.94489   0.58344   1.38889   0.0000000000
N          N       0.20036   0.38406   1.38889   0.0000000000
C          C       0.23533   0.39499   1.38889   0.0000000000
C          C       0.15349   0.41587   1.38889   0.0000000000
C          C       0.13641   0.46212   1.38889   0.0000000000
C          C       0.09056   0.49139   1.38889   0.0000000000
C          C       0.06100   0.47532   1.38889   0.0000000000
C          C       0.07766   0.42942   1.38889   0.0000000000
C          C       0.12344   0.40007   1.38889   0.0000000000
H          H       0.22542   0.42968   1.38889   0.0000000000
H          H       0.15752   0.47646   1.38889   0.0000000000
H          H       0.20797   0.35119   1.38889   0.0000000000
H          H       0.13559   0.36476   1.38889   0.0000000000
H          H       0.07777   0.52680   1.38889   0.0000000000
H          H       0.05511   0.41656   1.38889   0.0000000000
N          N       0.98565   0.49376   1.38889   0.0000000000
N          N       0.01435   0.50624   1.38889   0.0000000000
N          N       0.58442   0.79964   1.38889   0.0000000000
C          C       0.63032   0.76467   1.38889   0.0000000000
C          C       0.56936   0.84651   1.38889   0.0000000000
C          C       0.59853   0.86359   1.38889   0.0000000000
C          C       0.58194   0.90944   1.38889   0.0000000000
C          C       0.53632   0.93901   1.38889   0.0000000000
C          C       0.50708   0.92234   1.38889   0.0000000000
C          C       0.52350   0.87656   1.38889   0.0000000000
H          H       0.65511   0.77458   1.38889   0.0000000000
H          H       0.63398   0.84248   1.38889   0.0000000000
H          H       0.55916   0.79203   1.38889   0.0000000000
H          H       0.50035   0.86441   1.38889   0.0000000000
H          H       0.60458   0.92223   1.38889   0.0000000000
H          H       0.47167   0.94489   1.38889   0.0000000000
N          N       0.41558   0.20036   1.38889   0.0000000000
C          C       0.36968   0.23533   1.38889   0.0000000000
C          C       0.43064   0.15349   1.38889   0.0000000000
C          C       0.40147   0.13641   1.38889   0.0000000000
C          C       0.41806   0.09056   1.38889   0.0000000000
C          C       0.46368   0.06100   1.38889   0.0000000000
C          C       0.49292   0.07766   1.38889   0.0000000000
C          C       0.47650   0.12344   1.38889   0.0000000000
H          H       0.34489   0.22542   1.38889   0.0000000000
H          H       0.36602   0.15752   1.38889   0.0000000000
H          H       0.44084   0.20797   1.38889   0.0000000000
H          H       0.49965   0.13559   1.38889   0.0000000000
H          H       0.39542   0.07777   1.38889   0.0000000000
H          H       0.52833   0.05511   1.38889   0.0000000000
N          N       0.52058   0.98565   1.38889   0.0000000000
N          N       0.47942   0.01435   1.38889   0.0000000000
C          C       0.68674   0.61626   1.38889   0.0000000000
C          C       0.63561   0.64614   1.38889   0.0000000000
O          O       0.70404   0.57461   1.38889   0.0000000000
C          C       0.61626   0.69699   1.38889   0.0000000000
C          C       0.64614   0.71825   1.38889   0.0000000000
O          O       0.57461   0.72135   1.38889   0.0000000000
C          C       0.69699   0.68674   1.38889   0.0000000000
C          C       0.71825   0.63561   1.38889   0.0000000000
O          O       0.72135   0.70404   1.38889   0.0000000000
C          C       0.31326   0.38374   1.38889   0.0000000000
C          C       0.36439   0.35386   1.38889   0.0000000000
O          O       0.29596   0.42539   1.38889   0.0000000000
C          C       0.38374   0.30301   1.38889   0.0000000000
C          C       0.35386   0.28175   1.38889   0.0000000000
O          O       0.42539   0.27865   1.38889   0.0000000000
C          C       0.30301   0.31326   1.38889   0.0000000000
C          C       0.28175   0.36439   1.38889   0.0000000000
O          O       0.27865   0.29596   1.38889   0.0000000000
