data_CoPc-PorDBA
_audit_creation_date              0000-00-00
_audit_creation_method            'LanYouShi'
_symmetry_space_group_name_H-M    'P1'
_cell_length_a                    35.7402000
_cell_length_b                    6.7121000
_cell_length_c                    35.8134995
_cell_angle_alpha                 90.0000000
_cell_angle_beta                  90.0003967
_cell_angle_gamma                 90.0000000
loop_
_atom_site_label
_atom_site_type_symbol
_atom_site_fract_x
_atom_site_fract_y
_atom_site_fract_z
_atom_site_U_iso_or_equiv
_atom_site_adp_type
_atom_site_occupancy
        C1          C  0.6825898  0.5000011  0.4805543    0.00000       Uiso       1.00
        C2          C  0.6490048  0.5000011  0.5402907    0.00000       Uiso       1.00
        C3          C  0.6153449  0.5000011  0.5196282    0.00000       Uiso       1.00
        C4          C  0.5780383  0.5000011  0.5308086    0.00000       Uiso       1.00
        C1          C  0.3174111  0.5000011  0.5194458    0.00000       Uiso       1.00
        C2          C  0.3509960  0.5000011  0.4597094    0.00000       Uiso       1.00
        C3          C  0.3846558  0.5000011  0.4803719    0.00000       Uiso       1.00
        C4          C  0.4219625  0.5000011  0.4691915    0.00000       Uiso       1.00
        O1          O  0.7177727  0.5000011  0.5332386    0.00000       Uiso       1.00
        O1          O  0.2822281  0.5000011  0.4667615    0.00000       Uiso       1.00
        H1          H  0.6493843  0.5000011  0.5687859    0.00000       Uiso       1.00
        H1          H  0.3506165  0.5000011  0.4312142    0.00000       Uiso       1.00
        C5          C  0.4805143  0.5000011  0.3167658    0.00000       Uiso       1.00
        C6          C  0.5404064  0.5000011  0.3502621    0.00000       Uiso       1.00
        C7          C  0.5197251  0.5000011  0.3838507    0.00000       Uiso       1.00
        C8          C  0.5310766  0.5000011  0.4210592    0.00000       Uiso       1.00
        C5          C  0.5194865  0.5000011  0.6832343    0.00000       Uiso       1.00
        C6          C  0.4595943  0.5000011  0.6497379    0.00000       Uiso       1.00
        C7          C  0.4802757  0.5000011  0.6161493    0.00000       Uiso       1.00
        C8          C  0.4689242  0.5000011  0.5789409    0.00000       Uiso       1.00
        O2          O  0.5333059  0.5000011  0.2816565    0.00000       Uiso       1.00
        O2          O  0.4666949  0.5000011  0.7183436    0.00000       Uiso       1.00
        H2          H  0.5689569  0.5000011  0.3498845    0.00000       Uiso       1.00
        H2          H  0.4310440  0.5000011  0.6501155    0.00000       Uiso       1.00
        N1          N  0.5664531  0.5000011  0.5666286    0.00000       Uiso       1.00
        N1          N  0.4335477  0.5000011  0.4333715    0.00000       Uiso       1.00
       C17          C  0.6825559  0.5000011  0.5197957    0.00000       Uiso       1.00
       C18          C  0.6490740  0.5000011  0.4600037    0.00000       Uiso       1.00
       C19          C  0.6153807  0.5000011  0.4806080    0.00000       Uiso       1.00
       C20          C  0.5780983  0.5000011  0.4693537    0.00000       Uiso       1.00
       C17          C  0.3174449  0.5000011  0.4802044    0.00000       Uiso       1.00
       C18          C  0.3509268  0.5000011  0.5399963    0.00000       Uiso       1.00
       C19          C  0.3846201  0.5000011  0.5193921    0.00000       Uiso       1.00
       C20          C  0.4219024  0.5000011  0.5306464    0.00000       Uiso       1.00
        O5          O  0.7178279  0.5000011  0.4671635    0.00000       Uiso       1.00
        O5          O  0.2821729  0.5000011  0.5328366    0.00000       Uiso       1.00
        H5          H  0.6495036  0.5000011  0.4315100    0.00000       Uiso       1.00
        H5          H  0.3504972  0.5000011  0.5684901    0.00000       Uiso       1.00
       C21          C  0.4801603  0.5000011  0.6831992    0.00000       Uiso       1.00
       C22          C  0.5401101  0.5000011  0.6498098    0.00000       Uiso       1.00
       C23          C  0.5194885  0.5000011  0.6161857    0.00000       Uiso       1.00
       C24          C  0.5309134  0.5000011  0.5790014    0.00000       Uiso       1.00
       C21          C  0.5198405  0.5000011  0.3168009    0.00000       Uiso       1.00
       C22          C  0.4598908  0.5000011  0.3501903    0.00000       Uiso       1.00
       C23          C  0.4805122  0.5000011  0.3838143    0.00000       Uiso       1.00
       C24          C  0.4690874  0.5000011  0.4209987    0.00000       Uiso       1.00
        O6          O  0.5328977  0.5000011  0.7184008    0.00000       Uiso       1.00
        O6          O  0.4671031  0.5000011  0.2815993    0.00000       Uiso       1.00
        H6          H  0.5686592  0.5000011  0.6502400    0.00000       Uiso       1.00
        H6          H  0.4313415  0.5000011  0.3497601    0.00000       Uiso       1.00
        N3          N  0.5665897  0.5000011  0.4335093    0.00000       Uiso       1.00
        N3          N  0.4334111  0.5000011  0.5664907    0.00000       Uiso       1.00
        B1          B  0.7408813  0.5000011  0.5002213    0.00000       Uiso       1.00
        B1          B  0.2591195  0.5000011  0.4997788    0.00000       Uiso       1.00
        N5          N  0.5562708  0.5000011  0.5000593    0.00000       Uiso       1.00
        N5          N  0.4437299  0.5000011  0.4999407    0.00000       Uiso       1.00
        B3          B  0.5002252  0.5000011  0.2585889    0.00000       Uiso       1.00
        B3          B  0.4997756  0.5000011  0.7414111    0.00000       Uiso       1.00
        N7          N  0.5000614  0.5000011  0.4420325    0.00000       Uiso       1.00
        N7          N  0.4999394  0.5000011  0.5579675    0.00000       Uiso       1.00
        H9          H  0.4999640  0.5000011  0.5310484    0.00000       Uiso       1.00
        H9          H  0.5000368  0.5000011  0.4689516    0.00000       Uiso       1.00
        N9          N  0.5411858  0.5000011  0.9571049    0.00000       Uiso       1.00
        N9          N  0.4588150  0.5000011  0.0428951    0.00000       Uiso       1.00
       H11          H  0.5215837  0.5000011  0.9758165    0.00000       Uiso       1.00
       H11          H  0.4784172  0.5000011  0.0241835    0.00000       Uiso       1.00
        C1          C  0.5779322  0.5000011  0.9650226    0.00000       Uiso       1.00
        C2          C  0.4220686  0.5000011  0.0349774    0.00000       Uiso       1.00
        C3          C  0.5968739  0.5000011  0.9311468    0.00000       Uiso       1.00
        C4          C  0.4031268  0.5000011  0.0688533    0.00000       Uiso       1.00
        C5          C  0.5348697  0.5000011  0.9199913    0.00000       Uiso       1.00
        C6          C  0.4651311  0.5000011  0.0800088    0.00000       Uiso       1.00
        C7          C  0.5701703  0.5000011  0.9031868    0.00000       Uiso       1.00
        C8          C  0.4298306  0.5000011  0.0968132    0.00000       Uiso       1.00
        H1          H  0.6252128  0.5000011  0.9273998    0.00000       Uiso       1.00
        H2          H  0.3747879  0.5000011  0.0726003    0.00000       Uiso       1.00
        H3          H  0.5756887  0.5000011  0.8751928    0.00000       Uiso       1.00
        H4          H  0.4243121  0.5000011  0.1248073    0.00000       Uiso       1.00
        N1          N  0.5403961  0.5000011  0.0420981    0.00000       Uiso       1.00
        N2          N  0.4596047  0.5000011  0.9579020    0.00000       Uiso       1.00
        C1          C  0.5774393  0.5000011  0.0346984    0.00000       Uiso       1.00
        C2          C  0.4225615  0.5000011  0.9653017    0.00000       Uiso       1.00
        C3          C  0.5966123  0.5000011  0.0684433    0.00000       Uiso       1.00
        C4          C  0.4033884  0.5000011  0.9315568    0.00000       Uiso       1.00
        C5          C  0.4652228  0.5000011  0.9205000    0.00000       Uiso       1.00
        C6          C  0.5347781  0.5000011  0.0795000    0.00000       Uiso       1.00
        C7          C  0.4299630  0.5000011  0.9036104    0.00000       Uiso       1.00
        C8          C  0.5700378  0.5000011  0.0963896    0.00000       Uiso       1.00
       H17          H  0.6249731  0.5000011  0.0721051    0.00000       Uiso       1.00
       H17          H  0.3750278  0.5000011  0.9278949    0.00000       Uiso       1.00
       C49          C  0.5954377  0.5000011  0.9999582    0.00000       Uiso       1.00
       C49          C  0.4045631  0.5000011  0.0000419    0.00000       Uiso       1.00
       H18          H  0.4243903  0.5000011  0.8756152    0.00000       Uiso       1.00
       H18          H  0.5756105  0.5000011  0.1243848    0.00000       Uiso       1.00
        C1          C  0.4999307  0.5000011  0.9014947    0.00000       Uiso       1.00
        C2          C  0.5000701  0.5000011  0.0985053    0.00000       Uiso       1.00
        C3          C  0.4998273  0.5000011  0.8620934    0.00000       Uiso       1.00
        C4          C  0.5001736  0.5000011  0.1379067    0.00000       Uiso       1.00
        C5          C  0.4997933  0.3184969  0.8421715    0.00000       Uiso       1.00
        C6          C  0.5002075  0.3184969  0.1578286    0.00000       Uiso       1.00
        C7          C  0.5002075  0.6815054  0.1578286    0.00000       Uiso       1.00
        C8          C  0.4997933  0.6815054  0.8421715    0.00000       Uiso       1.00
        C9          C  0.9012928  0.5000011  0.5000672    0.00000       Uiso       1.00
       C10          C  0.0987080  0.5000011  0.4999329    0.00000       Uiso       1.00
       C11          C  0.8618106  0.5000011  0.5001697    0.00000       Uiso       1.00
       C12          C  0.1381901  0.5000011  0.4998304    0.00000       Uiso       1.00
       C13          C  0.8418478  0.3184969  0.5002034    0.00000       Uiso       1.00
       C14          C  0.1581529  0.3184969  0.4997967    0.00000       Uiso       1.00
       C15          C  0.1581529  0.6815054  0.4997967    0.00000       Uiso       1.00
       C16          C  0.8418478  0.6815054  0.5002034    0.00000       Uiso       1.00
       H21          H  0.4997893  0.1857571  0.8562115    0.00000       Uiso       1.00
       H21          H  0.5002115  0.1857571  0.1437885    0.00000       Uiso       1.00
       H21          H  0.5002115  0.8142452  0.1437885    0.00000       Uiso       1.00
       H21          H  0.4997893  0.8142452  0.8562115    0.00000       Uiso       1.00
       C56          C  0.4997616  0.3185244  0.8028701    0.00000       Uiso       1.00
       C56          C  0.5002393  0.3185244  0.1971300    0.00000       Uiso       1.00
       C56          C  0.5002393  0.6814778  0.1971300    0.00000       Uiso       1.00
       C56          C  0.4997616  0.6814778  0.8028701    0.00000       Uiso       1.00
       H22          H  0.4997403  0.1858197  0.7888220    0.00000       Uiso       1.00
       H22          H  0.5002605  0.1858197  0.2111780    0.00000       Uiso       1.00
       H22          H  0.5002605  0.8141826  0.2111780    0.00000       Uiso       1.00
       H22          H  0.4997403  0.8141826  0.7888220    0.00000       Uiso       1.00
        C1          C  0.4997588  0.5000011  0.7829499    0.00000       Uiso       1.00
        C2          C  0.5002421  0.5000011  0.2170502    0.00000       Uiso       1.00
        H1          H  0.6240635  0.5000011  0.0000894    0.00000       Uiso       1.00
        H2          H  0.3759373  0.5000011  0.9999107    0.00000       Uiso       1.00
       N13          N  0.9570174  0.5000011  0.4588984    0.00000       Uiso       1.00
       N13          N  0.0429833  0.5000011  0.5411016    0.00000       Uiso       1.00
       H31          H  0.9757668  0.5000011  0.4784611    0.00000       Uiso       1.00
       H31          H  0.0242339  0.5000011  0.5215389    0.00000       Uiso       1.00
        C1          C  0.9649520  0.5000011  0.4222274    0.00000       Uiso       1.00
        C2          C  0.0350488  0.5000011  0.5777727    0.00000       Uiso       1.00
        C3          C  0.9310071  0.5000011  0.4033232    0.00000       Uiso       1.00
        C4          C  0.0689937  0.5000011  0.5966768    0.00000       Uiso       1.00
        C5          C  0.9198277  0.5000011  0.4652002    0.00000       Uiso       1.00
        C6          C  0.0801731  0.5000011  0.5347999    0.00000       Uiso       1.00
        C7          C  0.9029894  0.5000011  0.4299713    0.00000       Uiso       1.00
        C8          C  0.0970114  0.5000011  0.5700287    0.00000       Uiso       1.00
        H1          H  0.9272527  0.5000011  0.3750422    0.00000       Uiso       1.00
        H2          H  0.0727481  0.5000011  0.6249579    0.00000       Uiso       1.00
        H3          H  0.8749381  0.5000011  0.4244629    0.00000       Uiso       1.00
        H4          H  0.1250627  0.5000011  0.5755372    0.00000       Uiso       1.00
        N1          N  0.0421854  0.5000011  0.4596882    0.00000       Uiso       1.00
        N2          N  0.9578153  0.5000011  0.5403119    0.00000       Uiso       1.00
        C1          C  0.0347708  0.5000011  0.4227206    0.00000       Uiso       1.00
        C2          C  0.9652299  0.5000011  0.5772795    0.00000       Uiso       1.00
        C3          C  0.0685851  0.5000011  0.4035875    0.00000       Uiso       1.00
        C4          C  0.9314156  0.5000011  0.5964125    0.00000       Uiso       1.00
        C5          C  0.9203368  0.5000011  0.5347045    0.00000       Uiso       1.00
        C6          C  0.0796640  0.5000011  0.4652956    0.00000       Uiso       1.00
        C7          C  0.9034123  0.5000011  0.5698918    0.00000       Uiso       1.00
        C8          C  0.0965885  0.5000011  0.4301083    0.00000       Uiso       1.00
       H37          H  0.0722546  0.5000011  0.3752849    0.00000       Uiso       1.00
       H37          H  0.9277461  0.5000011  0.6247151    0.00000       Uiso       1.00
       C81          C  0.9999596  0.5000011  0.4047587    0.00000       Uiso       1.00
       C81          C  0.0000412  0.5000011  0.5952413    0.00000       Uiso       1.00
       H38          H  0.8753597  0.5000011  0.5754524    0.00000       Uiso       1.00
       H38          H  0.1246411  0.5000011  0.4245476    0.00000       Uiso       1.00
       H41          H  0.8559168  0.1857576  0.5002069    0.00000       Uiso       1.00
       H41          H  0.1440840  0.1857576  0.4997931    0.00000       Uiso       1.00
       H41          H  0.1440840  0.8142447  0.4997931    0.00000       Uiso       1.00
       H41          H  0.8559168  0.8142447  0.5002069    0.00000       Uiso       1.00
       C88          C  0.8024659  0.3185243  0.5002350    0.00000       Uiso       1.00
       C88          C  0.1975349  0.3185243  0.4997651    0.00000       Uiso       1.00
       C88          C  0.1975349  0.6814780  0.4997651    0.00000       Uiso       1.00
       C88          C  0.8024659  0.6814780  0.5002350    0.00000       Uiso       1.00
       H42          H  0.7883892  0.1858192  0.5002561    0.00000       Uiso       1.00
       H42          H  0.2116115  0.1858192  0.4997440    0.00000       Uiso       1.00
       H42          H  0.2116115  0.8141831  0.4997440    0.00000       Uiso       1.00
       H42          H  0.7883892  0.8141831  0.5002561    0.00000       Uiso       1.00
        C1          C  0.7825050  0.5000011  0.5002378    0.00000       Uiso       1.00
        C2          C  0.2174957  0.5000011  0.4997623    0.00000       Uiso       1.00
        H1          H  0.0000914  0.5000011  0.3761908    0.00000       Uiso       1.00
        H2          H  0.9999095  0.5000011  0.6238092    0.00000       Uiso       1.00
