data_crystal
 
_cell_length_a    35.74020
_cell_length_b    6.71210
_cell_length_c    35.81350
_cell_angle_alpha 90.00000
_cell_angle_beta  90.00040
_cell_angle_gamma 90.00000
 
_symmetry_space_group_name_Hall 'P 1'
_symmetry_space_group_name_H-M  'P 1'
 
loop_
_symmetry_equiv_pos_as_xyz
 'x,y,z' 
 
loop_
_atom_site_label
_atom_site_type_symbol
_atom_site_fract_x
_atom_site_fract_y
_atom_site_fract_z
_atom_site_charge
C          C       0.68259   0.50000   0.48055   0.0000000000
C          C       0.64900   0.50000   0.54029   0.0000000000
C          C       0.61534   0.50000   0.51963   0.0000000000
C          C       0.57804   0.50000   0.53081   0.0000000000
C          C       0.31741   0.50000   0.51945   0.0000000000
C          C       0.35100   0.50000   0.45971   0.0000000000
C          C       0.38466   0.50000   0.48037   0.0000000000
C          C       0.42196   0.50000   0.46919   0.0000000000
O          O       0.71777   0.50000   0.53324   0.0000000000
O          O       0.28223   0.50000   0.46676   0.0000000000
H          H       0.64938   0.50000   0.56879   0.0000000000
H          H       0.35062   0.50000   0.43121   0.0000000000
C          C       0.48051   0.50000   0.31677   0.0000000000
C          C       0.54041   0.50000   0.35026   0.0000000000
C          C       0.51973   0.50000   0.38385   0.0000000000
C          C       0.53108   0.50000   0.42106   0.0000000000
C          C       0.51949   0.50000   0.68323   0.0000000000
C          C       0.45959   0.50000   0.64974   0.0000000000
C          C       0.48028   0.50000   0.61615   0.0000000000
C          C       0.46892   0.50000   0.57894   0.0000000000
O          O       0.53331   0.50000   0.28166   0.0000000000
O          O       0.46669   0.50000   0.71834   0.0000000000
H          H       0.56896   0.50000   0.34988   0.0000000000
H          H       0.43104   0.50000   0.65012   0.0000000000
N          N       0.56645   0.50000   0.56663   0.0000000000
N          N       0.43355   0.50000   0.43337   0.0000000000
C          C       0.68256   0.50000   0.51980   0.0000000000
C          C       0.64907   0.50000   0.46000   0.0000000000
C          C       0.61538   0.50000   0.48061   0.0000000000
C          C       0.57810   0.50000   0.46935   0.0000000000
C          C       0.31744   0.50000   0.48020   0.0000000000
C          C       0.35093   0.50000   0.54000   0.0000000000
C          C       0.38462   0.50000   0.51939   0.0000000000
C          C       0.42190   0.50000   0.53065   0.0000000000
O          O       0.71783   0.50000   0.46716   0.0000000000
O          O       0.28217   0.50000   0.53284   0.0000000000
H          H       0.64950   0.50000   0.43151   0.0000000000
H          H       0.35050   0.50000   0.56849   0.0000000000
C          C       0.48016   0.50000   0.68320   0.0000000000
C          C       0.54011   0.50000   0.64981   0.0000000000
C          C       0.51949   0.50000   0.61619   0.0000000000
C          C       0.53091   0.50000   0.57900   0.0000000000
C          C       0.51984   0.50000   0.31680   0.0000000000
C          C       0.45989   0.50000   0.35019   0.0000000000
C          C       0.48051   0.50000   0.38381   0.0000000000
C          C       0.46909   0.50000   0.42100   0.0000000000
O          O       0.53290   0.50000   0.71840   0.0000000000
O          O       0.46710   0.50000   0.28160   0.0000000000
H          H       0.56866   0.50000   0.65024   0.0000000000
H          H       0.43134   0.50000   0.34976   0.0000000000
N          N       0.56659   0.50000   0.43351   0.0000000000
N          N       0.43341   0.50000   0.56649   0.0000000000
B          B       0.74088   0.50000   0.50022   0.0000000000
B          B       0.25912   0.50000   0.49978   0.0000000000
N          N       0.55627   0.50000   0.50006   0.0000000000
N          N       0.44373   0.50000   0.49994   0.0000000000
B          B       0.50023   0.50000   0.25859   0.0000000000
B          B       0.49978   0.50000   0.74141   0.0000000000
N          N       0.50006   0.50000   0.44203   0.0000000000
N          N       0.49994   0.50000   0.55797   0.0000000000
H          H       0.49996   0.50000   0.53105   0.0000000000
H          H       0.50004   0.50000   0.46895   0.0000000000
N          N       0.54119   0.50000   0.95710   0.0000000000
N          N       0.45881   0.50000   0.04290   0.0000000000
H          H       0.52158   0.50000   0.97582   0.0000000000
H          H       0.47842   0.50000   0.02418   0.0000000000
C          C       0.57793   0.50000   0.96502   0.0000000000
C          C       0.42207   0.50000   0.03498   0.0000000000
C          C       0.59687   0.50000   0.93115   0.0000000000
C          C       0.40313   0.50000   0.06885   0.0000000000
C          C       0.53487   0.50000   0.91999   0.0000000000
C          C       0.46513   0.50000   0.08001   0.0000000000
C          C       0.57017   0.50000   0.90319   0.0000000000
C          C       0.42983   0.50000   0.09681   0.0000000000
H          H       0.62521   0.50000   0.92740   0.0000000000
H          H       0.37479   0.50000   0.07260   0.0000000000
H          H       0.57569   0.50000   0.87519   0.0000000000
H          H       0.42431   0.50000   0.12481   0.0000000000
N          N       0.54040   0.50000   0.04210   0.0000000000
N          N       0.45960   0.50000   0.95790   0.0000000000
C          C       0.57744   0.50000   0.03470   0.0000000000
C          C       0.42256   0.50000   0.96530   0.0000000000
C          C       0.59661   0.50000   0.06844   0.0000000000
C          C       0.40339   0.50000   0.93156   0.0000000000
C          C       0.46522   0.50000   0.92050   0.0000000000
C          C       0.53478   0.50000   0.07950   0.0000000000
C          C       0.42996   0.50000   0.90361   0.0000000000
C          C       0.57004   0.50000   0.09639   0.0000000000
H          H       0.62497   0.50000   0.07211   0.0000000000
H          H       0.37503   0.50000   0.92789   0.0000000000
C          C       0.59544   0.50000   0.99996   0.0000000000
C          C       0.40456   0.50000   0.00004   0.0000000000
H          H       0.42439   0.50000   0.87562   0.0000000000
H          H       0.57561   0.50000   0.12438   0.0000000000
C          C       0.49993   0.50000   0.90149   0.0000000000
C          C       0.50007   0.50000   0.09851   0.0000000000
C          C       0.49983   0.50000   0.86209   0.0000000000
C          C       0.50017   0.50000   0.13791   0.0000000000
C          C       0.49979   0.31850   0.84217   0.0000000000
C          C       0.50021   0.31850   0.15783   0.0000000000
C          C       0.50021   0.68151   0.15783   0.0000000000
C          C       0.49979   0.68151   0.84217   0.0000000000
C          C       0.90129   0.50000   0.50007   0.0000000000
C          C       0.09871   0.50000   0.49993   0.0000000000
C          C       0.86181   0.50000   0.50017   0.0000000000
C          C       0.13819   0.50000   0.49983   0.0000000000
C          C       0.84185   0.31850   0.50020   0.0000000000
C          C       0.15815   0.31850   0.49980   0.0000000000
C          C       0.15815   0.68151   0.49980   0.0000000000
C          C       0.84185   0.68151   0.50020   0.0000000000
H          H       0.49979   0.18576   0.85621   0.0000000000
H          H       0.50021   0.18576   0.14379   0.0000000000
H          H       0.50021   0.81425   0.14379   0.0000000000
H          H       0.49979   0.81425   0.85621   0.0000000000
C          C       0.49976   0.31852   0.80287   0.0000000000
C          C       0.50024   0.31852   0.19713   0.0000000000
C          C       0.50024   0.68148   0.19713   0.0000000000
C          C       0.49976   0.68148   0.80287   0.0000000000
H          H       0.49974   0.18582   0.78882   0.0000000000
H          H       0.50026   0.18582   0.21118   0.0000000000
H          H       0.50026   0.81418   0.21118   0.0000000000
H          H       0.49974   0.81418   0.78882   0.0000000000
C          C       0.49976   0.50000   0.78295   0.0000000000
C          C       0.50024   0.50000   0.21705   0.0000000000
H          H       0.62406   0.50000   0.00009   0.0000000000
H          H       0.37594   0.50000   0.99991   0.0000000000
N          N       0.95702   0.50000   0.45890   0.0000000000
N          N       0.04298   0.50000   0.54110   0.0000000000
H          H       0.97577   0.50000   0.47846   0.0000000000
H          H       0.02423   0.50000   0.52154   0.0000000000
C          C       0.96495   0.50000   0.42223   0.0000000000
C          C       0.03505   0.50000   0.57777   0.0000000000
C          C       0.93101   0.50000   0.40332   0.0000000000
C          C       0.06899   0.50000   0.59668   0.0000000000
C          C       0.91983   0.50000   0.46520   0.0000000000
C          C       0.08017   0.50000   0.53480   0.0000000000
C          C       0.90299   0.50000   0.42997   0.0000000000
C          C       0.09701   0.50000   0.57003   0.0000000000
H          H       0.92725   0.50000   0.37504   0.0000000000
H          H       0.07275   0.50000   0.62496   0.0000000000
H          H       0.87494   0.50000   0.42446   0.0000000000
H          H       0.12506   0.50000   0.57554   0.0000000000
N          N       0.04219   0.50000   0.45969   0.0000000000
N          N       0.95782   0.50000   0.54031   0.0000000000
C          C       0.03477   0.50000   0.42272   0.0000000000
C          C       0.96523   0.50000   0.57728   0.0000000000
C          C       0.06859   0.50000   0.40359   0.0000000000
C          C       0.93142   0.50000   0.59641   0.0000000000
C          C       0.92034   0.50000   0.53470   0.0000000000
C          C       0.07966   0.50000   0.46530   0.0000000000
C          C       0.90341   0.50000   0.56989   0.0000000000
C          C       0.09659   0.50000   0.43011   0.0000000000
H          H       0.07225   0.50000   0.37528   0.0000000000
H          H       0.92775   0.50000   0.62472   0.0000000000
C          C       0.99996   0.50000   0.40476   0.0000000000
C          C       0.00004   0.50000   0.59524   0.0000000000
H          H       0.87536   0.50000   0.57545   0.0000000000
H          H       0.12464   0.50000   0.42455   0.0000000000
H          H       0.85592   0.18576   0.50021   0.0000000000
H          H       0.14408   0.18576   0.49979   0.0000000000
H          H       0.14408   0.81424   0.49979   0.0000000000
H          H       0.85592   0.81424   0.50021   0.0000000000
C          C       0.80247   0.31852   0.50023   0.0000000000
C          C       0.19753   0.31852   0.49977   0.0000000000
C          C       0.19753   0.68148   0.49977   0.0000000000
C          C       0.80247   0.68148   0.50023   0.0000000000
H          H       0.78839   0.18582   0.50026   0.0000000000
H          H       0.21161   0.18582   0.49974   0.0000000000
H          H       0.21161   0.81418   0.49974   0.0000000000
H          H       0.78839   0.81418   0.50026   0.0000000000
C          C       0.78251   0.50000   0.50024   0.0000000000
C          C       0.21750   0.50000   0.49976   0.0000000000
H          H       0.00009   0.50000   0.37619   0.0000000000
H          H       0.99991   0.50000   0.62381   0.0000000000
