data_CTC-COF
_audit_creation_date              0000-00-00
_audit_creation_method            'LanYouShi'
_symmetry_space_group_name_H-M    'P1'
_cell_length_a                    25.0645008
_cell_length_b                    25.0645008
_cell_length_c                    4.2989001
_cell_angle_alpha                 90.0000000
_cell_angle_beta                  90.0000000
_cell_angle_gamma                 120.0000000
loop_
_atom_site_label
_atom_site_type_symbol
_atom_site_fract_x
_atom_site_fract_y
_atom_site_fract_z
_atom_site_U_iso_or_equiv
_atom_site_adp_type
_atom_site_occupancy
        C1          C  0.5563800  0.3882600 -0.7959500    0.00000       Uiso       1.00
        C2          C  0.5474800  0.3403800 -0.9846900    0.00000       Uiso       1.00
        C3          C  0.5962500  0.3477500 -1.1729800    0.00000       Uiso       1.00
        C4          C  0.4638800  0.4402100 -0.1075000    0.00000       Uiso       1.00
        O1          O  0.5168500  0.3917600 -0.5913800    0.00000       Uiso       1.00
        H1          H  0.5031500  0.2973500 -0.9887199    0.00000       Uiso       1.00
        H2          H  0.4356200  0.3930400 -0.1947200    0.00000       Uiso       1.00
        C5          C  0.6117400  0.1681200 -0.7959500    0.00000       Uiso       1.00
        C6          C  0.6596200  0.2071000 -0.9846900    0.00000       Uiso       1.00
        C7          C  0.6522500  0.2485000 -1.1729800    0.00000       Uiso       1.00
        C8          C  0.5597900  0.0236700 -0.1075000    0.00000       Uiso       1.00
        O2          O  0.6082399  0.1250900 -0.5913800    0.00000       Uiso       1.00
        H3          H  0.7026500  0.2058000 -0.9887199    0.00000       Uiso       1.00
        H4          H  0.6069599  0.0425800 -0.1947200    0.00000       Uiso       1.00
        C9          C  0.8318800  0.4436200 -0.7959500    0.00000       Uiso       1.00
       C10          C  0.7929000  0.4525200 -0.9846900    0.00000       Uiso       1.00
       C11          C  0.7515000  0.4037500 -1.1729800    0.00000       Uiso       1.00
       C12          C  0.9763300  0.5361200 -0.1075000    0.00000       Uiso       1.00
        O3          O  0.8749099  0.4831500 -0.5913800    0.00000       Uiso       1.00
        H5          H  0.7942000  0.4968500 -0.9887199    0.00000       Uiso       1.00
        H6          H  0.9574200  0.5643800 -0.1947200    0.00000       Uiso       1.00
       C13          C  0.3882600  0.5563800  0.7959500    0.00000       Uiso       1.00
       C14          C  0.3403800  0.5474800  0.9846900    0.00000       Uiso       1.00
       C15          C  0.3477500  0.5962500  1.1729800    0.00000       Uiso       1.00
       C16          C  0.4402100  0.4638800  0.1075000    0.00000       Uiso       1.00
        O4          O  0.3917600  0.5168499  0.5913800    0.00000       Uiso       1.00
        H7          H  0.2973500  0.5031500  0.9887199    0.00000       Uiso       1.00
        H8          H  0.3930400  0.4356200  0.1947200    0.00000       Uiso       1.00
       C17          C  0.1681200  0.6117400  0.7959500    0.00000       Uiso       1.00
       C18          C  0.2071000  0.6596200  0.9846900    0.00000       Uiso       1.00
       C19          C  0.2485000  0.6522499  1.1729800    0.00000       Uiso       1.00
       C20          C  0.0236700  0.5597900  0.1075000    0.00000       Uiso       1.00
        O5          O  0.1250900  0.6082400  0.5913800    0.00000       Uiso       1.00
        H9          H  0.2058000  0.7026500  0.9887199    0.00000       Uiso       1.00
       H10          H  0.0425800  0.6069600  0.1947200    0.00000       Uiso       1.00
       C21          C  0.4436200  0.8318800  0.7959500    0.00000       Uiso       1.00
       C22          C  0.4525200  0.7929000  0.9846900    0.00000       Uiso       1.00
       C23          C  0.4037500  0.7515000  1.1729800    0.00000       Uiso       1.00
       C24          C  0.5361200  0.9763300  0.1075000    0.00000       Uiso       1.00
        O6          O  0.4831500  0.8749099  0.5913800    0.00000       Uiso       1.00
       H11          H  0.4968500  0.7942000  0.9887199    0.00000       Uiso       1.00
       H12          H  0.5643800  0.9574199  0.1947200    0.00000       Uiso       1.00
       C25          C  0.4436200  0.6117400  0.7959500    0.00000       Uiso       1.00
       C26          C  0.4525200  0.6596200  0.9846900    0.00000       Uiso       1.00
       C27          C  0.4037500  0.6522499  1.1729800    0.00000       Uiso       1.00
       C28          C  0.5361200  0.5597900  0.1075000    0.00000       Uiso       1.00
        O7          O  0.4831500  0.6082400  0.5913800    0.00000       Uiso       1.00
       H13          H  0.4968500  0.7026500  0.9887199    0.00000       Uiso       1.00
       H14          H  0.5643800  0.6069600  0.1947200    0.00000       Uiso       1.00
       C29          C  0.3882600  0.8318800  0.7959500    0.00000       Uiso       1.00
       C30          C  0.3403800  0.7929000  0.9846900    0.00000       Uiso       1.00
       C31          C  0.3477500  0.7515000  1.1729800    0.00000       Uiso       1.00
       C32          C  0.4402100  0.9763300  0.1075000    0.00000       Uiso       1.00
        O8          O  0.3917600  0.8749099  0.5913800    0.00000       Uiso       1.00
       H15          H  0.2973500  0.7942000  0.9887199    0.00000       Uiso       1.00
       H16          H  0.3930400  0.9574199  0.1947200    0.00000       Uiso       1.00
       C33          C  0.1681200  0.5563800  0.7959500    0.00000       Uiso       1.00
       C34          C  0.2071000  0.5474800  0.9846900    0.00000       Uiso       1.00
       C35          C  0.2485000  0.5962500  1.1729800    0.00000       Uiso       1.00
       C36          C  0.0236700  0.4638800  0.1075000    0.00000       Uiso       1.00
        O9          O  0.1250900  0.5168499  0.5913800    0.00000       Uiso       1.00
       H17          H  0.2058000  0.5031500  0.9887199    0.00000       Uiso       1.00
       H18          H  0.0425800  0.4356200  0.1947200    0.00000       Uiso       1.00
       C37          C  0.6117400  0.4436200 -0.7959500    0.00000       Uiso       1.00
       C38          C  0.6596200  0.4525200 -0.9846900    0.00000       Uiso       1.00
       C39          C  0.6522500  0.4037500 -1.1729800    0.00000       Uiso       1.00
       C40          C  0.5597900  0.5361200 -0.1075000    0.00000       Uiso       1.00
       O10          O  0.6082400  0.4831500 -0.5913800    0.00000       Uiso       1.00
       H19          H  0.7026500  0.4968500 -0.9887199    0.00000       Uiso       1.00
       H20          H  0.6069600  0.5643800 -0.1947200    0.00000       Uiso       1.00
       C41          C  0.8318800  0.3882600 -0.7959500    0.00000       Uiso       1.00
       C42          C  0.7929000  0.3403800 -0.9846900    0.00000       Uiso       1.00
       C43          C  0.7515000  0.3477500 -1.1729800    0.00000       Uiso       1.00
       C44          C  0.9763299  0.4402100 -0.1075000    0.00000       Uiso       1.00
       O11          O  0.8749099  0.3917600 -0.5913800    0.00000       Uiso       1.00
       H21          H  0.7942000  0.2973500 -0.9887199    0.00000       Uiso       1.00
       H22          H  0.9574200  0.3930400 -0.1947200    0.00000       Uiso       1.00
       C45          C  0.5563800  0.1681200 -0.7959500    0.00000       Uiso       1.00
       C46          C  0.5474800  0.2071000 -0.9846900    0.00000       Uiso       1.00
       C47          C  0.5962500  0.2485000 -1.1729800    0.00000       Uiso       1.00
       C48          C  0.4638800  0.0236700 -0.1075000    0.00000       Uiso       1.00
       O12          O  0.5168500  0.1250900 -0.5913800    0.00000       Uiso       1.00
       H23          H  0.5031500  0.2058000 -0.9887199    0.00000       Uiso       1.00
       H24          H  0.4356200  0.0425800 -0.1947200    0.00000       Uiso       1.00
       C49          C  0.5863500  0.2931750 -1.3616199    0.00000       Uiso       1.00
       H25          H  0.5384700  0.2692350 -1.4496200    0.00000       Uiso       1.00
       H26          H  0.6151200  0.3075600 -1.5727099    0.00000       Uiso       1.00
       C50          C  0.7068250  0.2931750 -1.3616199    0.00000       Uiso       1.00
       H27          H  0.7307650  0.2692350 -1.4496200    0.00000       Uiso       1.00
       H28          H  0.6924400  0.3075600 -1.5727099    0.00000       Uiso       1.00
       C51          C  0.7068250  0.4136500 -1.3616199    0.00000       Uiso       1.00
       H29          H  0.7307650  0.4615300 -1.4496200    0.00000       Uiso       1.00
       H30          H  0.6924400  0.3848800 -1.5727099    0.00000       Uiso       1.00
       C52          C  0.2931750  0.5863500  1.3616199    0.00000       Uiso       1.00
       H31          H  0.2692350  0.5384700  1.4496200    0.00000       Uiso       1.00
       H32          H  0.3075600  0.6151200  1.5727099    0.00000       Uiso       1.00
       C53          C  0.2931750  0.7068250  1.3616199    0.00000       Uiso       1.00
       H33          H  0.2692350  0.7307650  1.4496200    0.00000       Uiso       1.00
       H34          H  0.3075600  0.6924400  1.5727099    0.00000       Uiso       1.00
       C54          C  0.4136500  0.7068250  1.3616199    0.00000       Uiso       1.00
       H35          H  0.4615300  0.7307650  1.4496200    0.00000       Uiso       1.00
       H36          H  0.3848800  0.6924400  1.5727099    0.00000       Uiso       1.00
       C55          C  0.5240000  0.4760000 -0.2185500    0.00000       Uiso       1.00
        B1          B  0.5494300  0.4505700 -0.4637600    0.00000       Uiso       1.00
       C56          C  0.5240000  0.0480000 -0.2185500    0.00000       Uiso       1.00
        B2          B  0.5494300  0.0988600 -0.4637600    0.00000       Uiso       1.00
       C57          C  0.9520000  0.4760000 -0.2185500    0.00000       Uiso       1.00
        B3          B  0.9011400  0.4505700 -0.4637600    0.00000       Uiso       1.00
       C58          C  0.4760000  0.5240000  0.2185500    0.00000       Uiso       1.00
        B4          B  0.4505700  0.5494300  0.4637600    0.00000       Uiso       1.00
       C59          C  0.0480000  0.5240000  0.2185500    0.00000       Uiso       1.00
        B5          B  0.0988600  0.5494300  0.4637600    0.00000       Uiso       1.00
       C60          C  0.4760000  0.9520000  0.2185500    0.00000       Uiso       1.00
        B6          B  0.4505700  0.9011399  0.4637600    0.00000       Uiso       1.00
