data_crystal
 
_cell_length_a    18.36000
_cell_length_b    18.36000
_cell_length_c    3.36000
_cell_angle_alpha 90.00000
_cell_angle_beta  90.00000
_cell_angle_gamma 120.00000
 
_symmetry_space_group_name_Hall 'P 1'
_symmetry_space_group_name_H-M  'P 1'
 
loop_
_symmetry_equiv_pos_as_xyz
 'x,y,z' 
 
loop_
_atom_site_label
_atom_site_type_symbol
_atom_site_fract_x
_atom_site_fract_y
_atom_site_fract_z
_atom_site_charge
C          C       0.36690   0.61740   0.50000   0.0000000000
C          C       0.40377   0.56182   0.50000   0.0000000000
C          C       0.38620   0.42178   0.50000   0.0000000000
C          C       0.49150   0.59607   0.50000   0.0000000000
C          C       0.35164   0.47389   0.50000   0.0000000000
N          N       0.28228   0.58082   0.50000   0.0000000000
C          C       0.52606   0.54396   0.50000   0.0000000000
H          H       0.34312   0.35061   0.50000   0.0000000000
H          H       0.53459   0.66724   0.50000   0.0000000000
H          H       0.28040   0.44518   0.50000   0.0000000000
C          C       0.38260   0.74950   0.50000   0.0000000000
C          C       0.43818   0.84195   0.50000   0.0000000000
C          C       0.57822   0.96442   0.50000   0.0000000000
C          C       0.40393   0.89543   0.50000   0.0000000000
C          C       0.52611   0.87775   0.50000   0.0000000000
N          N       0.41918   0.70146   0.50000   0.0000000000
C          C       0.45604   0.98210   0.50000   0.0000000000
H          H       0.64939   0.99251   0.50000   0.0000000000
H          H       0.33276   0.86735   0.50000   0.0000000000
H          H       0.55482   0.83522   0.50000   0.0000000000
C          C       0.25050   0.63310   0.50000   0.0000000000
C          C       0.15805   0.59623   0.50000   0.0000000000
C          C       0.03558   0.61380   0.50000   0.0000000000
C          C       0.10457   0.50850   0.50000   0.0000000000
C          C       0.12225   0.64836   0.50000   0.0000000000
N          N       0.29854   0.71772   0.50000   0.0000000000
C          C       0.01790   0.47394   0.50000   0.0000000000
H          H       0.00749   0.65688   0.50000   0.0000000000
H          H       0.13265   0.46541   0.50000   0.0000000000
H          H       0.16478   0.71960   0.50000   0.0000000000
C          C       0.63310   0.38260   0.50000   0.0000000000
C          C       0.59623   0.43818   0.50000   0.0000000000
C          C       0.61380   0.57822   0.50000   0.0000000000
C          C       0.50850   0.40393   0.50000   0.0000000000
C          C       0.64836   0.52611   0.50000   0.0000000000
N          N       0.71772   0.41918   0.50000   0.0000000000
C          C       0.47394   0.45604   0.50000   0.0000000000
H          H       0.65688   0.64939   0.50000   0.0000000000
H          H       0.46541   0.33276   0.50000   0.0000000000
H          H       0.71960   0.55482   0.50000   0.0000000000
C          C       0.61740   0.25050   0.50000   0.0000000000
C          C       0.56182   0.15805   0.50000   0.0000000000
C          C       0.42178   0.03558   0.50000   0.0000000000
C          C       0.59607   0.10457   0.50000   0.0000000000
C          C       0.47389   0.12225   0.50000   0.0000000000
N          N       0.58082   0.29854   0.50000   0.0000000000
C          C       0.54396   0.01790   0.50000   0.0000000000
H          H       0.35061   0.00749   0.50000   0.0000000000
H          H       0.66724   0.13265   0.50000   0.0000000000
H          H       0.44518   0.16478   0.50000   0.0000000000
C          C       0.74950   0.36690   0.50000   0.0000000000
C          C       0.84195   0.40377   0.50000   0.0000000000
C          C       0.96442   0.38620   0.50000   0.0000000000
C          C       0.89543   0.49150   0.50000   0.0000000000
C          C       0.87775   0.35164   0.50000   0.0000000000
N          N       0.70146   0.28228   0.50000   0.0000000000
C          C       0.98210   0.52606   0.50000   0.0000000000
H          H       0.99251   0.34312   0.50000   0.0000000000
H          H       0.86735   0.53459   0.50000   0.0000000000
H          H       0.83522   0.28040   0.50000   0.0000000000
