data_CTF-2-AA
_audit_creation_date              0000-00-00
_audit_creation_method            'LanYouShi'
_symmetry_space_group_name_H-M    'P1'
_cell_length_a                    18.3600006
_cell_length_b                    18.3600006
_cell_length_c                    3.3599999
_cell_angle_alpha                 90.0000000
_cell_angle_beta                  90.0000000
_cell_angle_gamma                 120.0000000
loop_
_atom_site_label
_atom_site_type_symbol
_atom_site_fract_x
_atom_site_fract_y
_atom_site_fract_z
_atom_site_U_iso_or_equiv
_atom_site_adp_type
_atom_site_occupancy
        C1          C  0.3668999  0.6173999  0.5000000    0.00000       Uiso       1.00
        C2          C  0.4037700  0.5618200  0.5000000    0.00000       Uiso       1.00
        C3          C  0.3862000  0.4217800  0.5000000    0.00000       Uiso       1.00
        C4          C  0.4915000  0.5960700  0.5000000    0.00000       Uiso       1.00
        C5          C  0.3516400  0.4738900  0.5000000    0.00000       Uiso       1.00
        N1          N  0.2822800  0.5808200  0.5000000    0.00000       Uiso       1.00
        C6          C  0.5260599  0.5439600  0.5000000    0.00000       Uiso       1.00
        H1          H  0.3431199  0.3506100  0.5000000    0.00000       Uiso       1.00
        H2          H  0.5345900  0.6672400  0.5000000    0.00000       Uiso       1.00
        H3          H  0.2804000  0.4451800  0.5000000    0.00000       Uiso       1.00
        C7          C  0.3826000  0.7494999  0.5000000    0.00000       Uiso       1.00
        C8          C  0.4381800  0.8419499  0.5000000    0.00000       Uiso       1.00
        C9          C  0.5782200  0.9644199  0.5000000    0.00000       Uiso       1.00
       C10          C  0.4039300  0.8954300  0.5000000    0.00000       Uiso       1.00
       C11          C  0.5261100  0.8777500  0.5000000    0.00000       Uiso       1.00
        N2          N  0.4191800  0.7014600  0.5000000    0.00000       Uiso       1.00
       C12          C  0.4560400  0.9821000  0.5000000    0.00000       Uiso       1.00
        H4          H  0.6493900  0.9925099  0.5000000    0.00000       Uiso       1.00
        H5          H  0.3327600  0.8673500  0.5000000    0.00000       Uiso       1.00
        H6          H  0.5548200  0.8352199  0.5000000    0.00000       Uiso       1.00
       C13          C  0.2505000  0.6331000  0.5000000    0.00000       Uiso       1.00
       C14          C  0.1580500  0.5962300  0.5000000    0.00000       Uiso       1.00
       C15          C  0.0355800  0.6138000  0.5000000    0.00000       Uiso       1.00
       C16          C  0.1045700  0.5085000  0.5000000    0.00000       Uiso       1.00
       C17          C  0.1222500  0.6483600  0.5000000    0.00000       Uiso       1.00
        N3          N  0.2985400  0.7177200  0.5000000    0.00000       Uiso       1.00
       C18          C  0.0179000  0.4739400  0.5000000    0.00000       Uiso       1.00
        H7          H  0.0074900  0.6568800  0.5000000    0.00000       Uiso       1.00
        H8          H  0.1326500  0.4654100  0.5000000    0.00000       Uiso       1.00
        H9          H  0.1647800  0.7196000  0.5000000    0.00000       Uiso       1.00
       C19          C  0.6331000  0.3826000  0.5000000    0.00000       Uiso       1.00
       C20          C  0.5962300  0.4381800  0.5000000    0.00000       Uiso       1.00
       C21          C  0.6138000  0.5782200  0.5000000    0.00000       Uiso       1.00
       C22          C  0.5085000  0.4039300  0.5000000    0.00000       Uiso       1.00
       C23          C  0.6483600  0.5261099  0.5000000    0.00000       Uiso       1.00
        N4          N  0.7177200  0.4191800  0.5000000    0.00000       Uiso       1.00
       C24          C  0.4739400  0.4560400  0.5000000    0.00000       Uiso       1.00
       H10          H  0.6568800  0.6493900  0.5000000    0.00000       Uiso       1.00
       H11          H  0.4654100  0.3327599  0.5000000    0.00000       Uiso       1.00
       H12          H  0.7196000  0.5548200  0.5000000    0.00000       Uiso       1.00
       C25          C  0.6174000  0.2505000  0.5000000    0.00000       Uiso       1.00
       C26          C  0.5618200  0.1580500  0.5000000    0.00000       Uiso       1.00
       C27          C  0.4217800  0.0355800  0.5000000    0.00000       Uiso       1.00
       C28          C  0.5960699  0.1045700  0.5000000    0.00000       Uiso       1.00
       C29          C  0.4738900  0.1222500  0.5000000    0.00000       Uiso       1.00
        N5          N  0.5808200  0.2985399  0.5000000    0.00000       Uiso       1.00
       C30          C  0.5439600  0.0179000  0.5000000    0.00000       Uiso       1.00
       H13          H  0.3506100  0.0074900  0.5000000    0.00000       Uiso       1.00
       H14          H  0.6672400  0.1326500  0.5000000    0.00000       Uiso       1.00
       H15          H  0.4451800  0.1647800  0.5000000    0.00000       Uiso       1.00
       C31          C  0.7495000  0.3669000  0.5000000    0.00000       Uiso       1.00
       C32          C  0.8419499  0.4037700  0.5000000    0.00000       Uiso       1.00
       C33          C  0.9644200  0.3861999  0.5000000    0.00000       Uiso       1.00
       C34          C  0.8954300  0.4915000  0.5000000    0.00000       Uiso       1.00
       C35          C  0.8777500  0.3516400  0.5000000    0.00000       Uiso       1.00
        N6          N  0.7014600  0.2822800  0.5000000    0.00000       Uiso       1.00
       C36          C  0.9821000  0.5260600  0.5000000    0.00000       Uiso       1.00
       H16          H  0.9925099  0.3431199  0.5000000    0.00000       Uiso       1.00
       H17          H  0.8673500  0.5345900  0.5000000    0.00000       Uiso       1.00
       H18          H  0.8352199  0.2804000  0.5000000    0.00000       Uiso       1.00
