data_CTF-fuma
_audit_creation_date              0000-00-00
_audit_creation_method            'LanYouShi'
_symmetry_space_group_name_H-M    'P1'
_cell_length_a                    11.1520004
_cell_length_b                    11.1520004
_cell_length_c                    3.4995999
_cell_angle_alpha                 90.0000000
_cell_angle_beta                  90.0000000
_cell_angle_gamma                 120.0000000
loop_
_atom_site_label
_atom_site_type_symbol
_atom_site_fract_x
_atom_site_fract_y
_atom_site_fract_z
_atom_site_U_iso_or_equiv
_atom_site_adp_type
_atom_site_occupancy
        C1          C  0.8057386  0.3826260  0.5000036    0.00000       Uiso       1.00
        C1          C  0.6173783  0.4231126  0.5000036    0.00000       Uiso       1.00
        C1          C  0.5768916  0.1942656  0.5000036    0.00000       Uiso       1.00
        C1          C  0.1942656  0.6173783  0.5000036    0.00000       Uiso       1.00
        C1          C  0.3826260  0.5768916  0.5000036    0.00000       Uiso       1.00
        C1          C  0.4231127  0.8057386  0.5000036    0.00000       Uiso       1.00
        N1          N  0.7154446  0.2447189  0.5000036    0.00000       Uiso       1.00
        N1          N  0.7552853  0.4707256  0.5000036    0.00000       Uiso       1.00
        N1          N  0.5292786  0.2845597  0.5000036    0.00000       Uiso       1.00
        N1          N  0.2845597  0.7552853  0.5000036    0.00000       Uiso       1.00
        N1          N  0.2447189  0.5292786  0.5000036    0.00000       Uiso       1.00
        N1          N  0.4707256  0.7154446  0.5000036    0.00000       Uiso       1.00
        C1          C  0.4815092  0.0518668  0.5000036    0.00000       Uiso       1.00
        C2          C  0.9481375  0.4296424  0.5000036    0.00000       Uiso       1.00
        C3          C  0.5703619  0.5184950  0.5000036    0.00000       Uiso       1.00
        C4          C  0.5184951  0.9481375  0.5000036    0.00000       Uiso       1.00
        C5          C  0.0518668  0.5703619  0.5000036    0.00000       Uiso       1.00
        C6          C  0.4296424  0.4815092  0.5000036    0.00000       Uiso       1.00
        H1          H  0.3788176  0.0230068  0.5000036    0.00000       Uiso       1.00
        H2          H  0.9769974  0.3558108  0.5000036    0.00000       Uiso       1.00
        H3          H  0.6441935  0.6211866  0.5000036    0.00000       Uiso       1.00
        H4          H  0.6211866  0.9769974  0.5000036    0.00000       Uiso       1.00
        H5          H  0.0230068  0.6441935  0.5000036    0.00000       Uiso       1.00
        H6          H  0.3558108  0.3788176  0.5000036    0.00000       Uiso       1.00
