data_CTF-NDC
_audit_creation_date              0000-00-00
_audit_creation_method            'LanYouShi'
_symmetry_space_group_name_H-M    'P1'
_cell_length_a                    14.9467001
_cell_length_b                    14.9467001
_cell_length_c                    3.4418001
_cell_angle_alpha                 90.0000000
_cell_angle_beta                  90.0000000
_cell_angle_gamma                 120.0000000
loop_
_atom_site_label
_atom_site_type_symbol
_atom_site_fract_x
_atom_site_fract_y
_atom_site_fract_z
_atom_site_U_iso_or_equiv
_atom_site_adp_type
_atom_site_occupancy
        C1          C  0.2294200  0.6003400  0.5000000    0.00000       Uiso       1.00
        N1          N  0.2688300  0.7036100  0.5000000    0.00000       Uiso       1.00
        H1          H  0.0883400  0.6595700  0.5000000    0.00000       Uiso       1.00
        C2          C  0.1066800  0.3592100  0.5000000    0.00000       Uiso       1.00
        H2          H  0.1874900  0.3929800  0.5000000    0.00000       Uiso       1.00
        C3          C  0.0532200  0.2520400  0.5000000    0.00000       Uiso       1.00
        H3          H  0.0949200  0.2100800  0.5000000    0.00000       Uiso       1.00
        C4          C  0.9439900  0.3615100  0.5000000    0.00000       Uiso       1.00
        C5          C  0.1122600  0.5287000  0.5000000    0.00000       Uiso       1.00
        C6          C  0.0532000  0.5773900  0.5000000    0.00000       Uiso       1.00
        C7          C  0.3996600  0.6290800  0.5000000    0.00000       Uiso       1.00
        N2          N  0.2963900  0.5652200  0.5000000    0.00000       Uiso       1.00
        H4          H  0.3404300  0.4287700  0.5000000    0.00000       Uiso       1.00
        C8          C  0.6407900  0.7474700  0.5000000    0.00000       Uiso       1.00
        H5          H  0.6070200  0.7945100  0.5000000    0.00000       Uiso       1.00
        C9          C  0.7479600  0.8011799  0.5000000    0.00000       Uiso       1.00
        H6          H  0.7899200  0.8848400  0.5000000    0.00000       Uiso       1.00
       C10          C  0.6384900  0.5824800  0.5000000    0.00000       Uiso       1.00
       C11          C  0.4713000  0.5835600  0.5000000    0.00000       Uiso       1.00
       C12          C  0.4226100  0.4758100  0.5000000    0.00000       Uiso       1.00
       C13          C  0.3709200  0.7705800  0.5000000    0.00000       Uiso       1.00
        N3          N  0.4347800  0.7311700  0.5000000    0.00000       Uiso       1.00
        H7          H  0.5712300  0.9116600  0.5000000    0.00000       Uiso       1.00
       C14          C  0.2525300  0.8933200  0.5000000    0.00000       Uiso       1.00
        H8          H  0.2054900  0.8125100  0.5000000    0.00000       Uiso       1.00
       C15          C  0.1988200  0.9467800  0.5000000    0.00000       Uiso       1.00
        H9          H  0.1151600  0.9050800  0.5000000    0.00000       Uiso       1.00
       C16          C  0.4175200  0.0560100  0.5000000    0.00000       Uiso       1.00
       C17          C  0.4164400  0.8877400  0.5000000    0.00000       Uiso       1.00
       C18          C  0.5241900  0.9468000  0.5000000    0.00000       Uiso       1.00
       C19          C  0.6003400  0.2294200  0.5000000    0.00000       Uiso       1.00
        N4          N  0.7036099  0.2688300  0.5000000    0.00000       Uiso       1.00
       H10          H  0.6595700  0.0883400  0.5000000    0.00000       Uiso       1.00
       C20          C  0.3592100  0.1066800  0.5000000    0.00000       Uiso       1.00
       H11          H  0.3929800  0.1874900  0.5000000    0.00000       Uiso       1.00
       C21          C  0.2520400  0.0532200  0.5000000    0.00000       Uiso       1.00
       H12          H  0.2100800  0.0949200  0.5000000    0.00000       Uiso       1.00
       C22          C  0.3615100  0.9439900  0.5000000    0.00000       Uiso       1.00
       C23          C  0.5287000  0.1122600  0.5000000    0.00000       Uiso       1.00
       C24          C  0.5773900  0.0532000  0.5000000    0.00000       Uiso       1.00
       C25          C  0.6290800  0.3996600  0.5000000    0.00000       Uiso       1.00
        N5          N  0.5652200  0.2963900  0.5000000    0.00000       Uiso       1.00
       H13          H  0.4287700  0.3404300  0.5000000    0.00000       Uiso       1.00
       C26          C  0.7474700  0.6407900  0.5000000    0.00000       Uiso       1.00
       H14          H  0.7945099  0.6070200  0.5000000    0.00000       Uiso       1.00
       C27          C  0.8011799  0.7479600  0.5000000    0.00000       Uiso       1.00
       H15          H  0.8848400  0.7899200  0.5000000    0.00000       Uiso       1.00
       C28          C  0.5824800  0.6384900  0.5000000    0.00000       Uiso       1.00
       C29          C  0.5835600  0.4713000  0.5000000    0.00000       Uiso       1.00
       C30          C  0.4758100  0.4226100  0.5000000    0.00000       Uiso       1.00
       C31          C  0.7705800  0.3709200  0.5000000    0.00000       Uiso       1.00
        N6          N  0.7311700  0.4347800  0.5000000    0.00000       Uiso       1.00
       H16          H  0.9116600  0.5712300  0.5000000    0.00000       Uiso       1.00
       C32          C  0.8933200  0.2525300  0.5000000    0.00000       Uiso       1.00
       H17          H  0.8125100  0.2054900  0.5000000    0.00000       Uiso       1.00
       C33          C  0.9467800  0.1988200  0.5000000    0.00000       Uiso       1.00
       H18          H  0.9050800  0.1151600  0.5000000    0.00000       Uiso       1.00
       C34          C  0.0560100  0.4175200  0.5000000    0.00000       Uiso       1.00
       C35          C  0.8877400  0.4164400  0.5000000    0.00000       Uiso       1.00
       C36          C  0.9468000  0.5241900  0.5000000    0.00000       Uiso       1.00
