data_CuP-SQ_COF
_audit_creation_date              0000-00-00
_audit_creation_method            'LanYouShi'
_symmetry_space_group_name_H-M    'P1'
_cell_length_a                    23.3292999
_cell_length_b                    34.9570999
_cell_length_c                    6.7638001
_cell_angle_alpha                 90.0000000
_cell_angle_beta                  90.0000000
_cell_angle_gamma                 90.0000000
loop_
_atom_site_label
_atom_site_type_symbol
_atom_site_fract_x
_atom_site_fract_y
_atom_site_fract_z
_atom_site_U_iso_or_equiv
_atom_site_adp_type
_atom_site_occupancy
        N1          N  0.2268584  0.6849945  0.5000011    0.00000       Uiso       1.00
        N2          N  0.7268575  0.1849939  0.5000011    0.00000       Uiso       1.00
        N3          N  0.7731400  0.3150067  0.5000011    0.00000       Uiso       1.00
        N4          N  0.2731408  0.8150073  0.5000011    0.00000       Uiso       1.00
        N5          N  0.7731400  0.6849945  0.5000011    0.00000       Uiso       1.00
        N6          N  0.2731408  0.1849939  0.5000011    0.00000       Uiso       1.00
        N7          N  0.2268584  0.3150067  0.5000011    0.00000       Uiso       1.00
        N8          N  0.7268575  0.8150073  0.5000011    0.00000       Uiso       1.00
        C1          C  0.2406527  0.7224592  0.5000011    0.00000       Uiso       1.00
        C2          C  0.7406519  0.2224586  0.5000011    0.00000       Uiso       1.00
        C3          C  0.7593455  0.2775421  0.5000011    0.00000       Uiso       1.00
        C4          C  0.2593464  0.7775427  0.5000011    0.00000       Uiso       1.00
        C5          C  0.7593455  0.7224592  0.5000011    0.00000       Uiso       1.00
        C6          C  0.2593464  0.2224586  0.5000011    0.00000       Uiso       1.00
        C7          C  0.2406527  0.2775421  0.5000011    0.00000       Uiso       1.00
        C8          C  0.7406519  0.7775427  0.5000011    0.00000       Uiso       1.00
        C9          C  0.2089087  0.7561366  0.5000011    0.00000       Uiso       1.00
       C10          C  0.7089078  0.2561360  0.5000011    0.00000       Uiso       1.00
       C11          C  0.7910896  0.2438646  0.5000011    0.00000       Uiso       1.00
       C12          C  0.2910905  0.7438652  0.5000011    0.00000       Uiso       1.00
       C13          C  0.7910896  0.7561366  0.5000011    0.00000       Uiso       1.00
       C14          C  0.2910905  0.2561360  0.5000011    0.00000       Uiso       1.00
       C15          C  0.2089087  0.2438646  0.5000011    0.00000       Uiso       1.00
       C16          C  0.7089078  0.7438652  0.5000011    0.00000       Uiso       1.00
        H1          H  0.1867384  0.6777061  0.5000011    0.00000       Uiso       1.00
        H2          H  0.6867376  0.1777055  0.5000011    0.00000       Uiso       1.00
        H3          H  0.8132599  0.3222951  0.5000011    0.00000       Uiso       1.00
        H4          H  0.3132607  0.8222957  0.5000011    0.00000       Uiso       1.00
        H5          H  0.8132599  0.6777061  0.5000011    0.00000       Uiso       1.00
        H6          H  0.3132607  0.1777055  0.5000011    0.00000       Uiso       1.00
        H7          H  0.1867384  0.3222951  0.5000011    0.00000       Uiso       1.00
        H8          H  0.6867376  0.8222957  0.5000011    0.00000       Uiso       1.00
       C17          C  0.9519310  0.9173280  0.5000011    0.00000       Uiso       1.00
       C18          C  0.4519319  0.4173274  0.5000011    0.00000       Uiso       1.00
       C19          C  0.0480673  0.0826732  0.5000011    0.00000       Uiso       1.00
       C20          C  0.5480664  0.5826738  0.5000011    0.00000       Uiso       1.00
       C21          C  0.0480673  0.9173280  0.5000011    0.00000       Uiso       1.00
       C22          C  0.5480664  0.4173274  0.5000011    0.00000       Uiso       1.00
       C23          C  0.9519310  0.0826732  0.5000011    0.00000       Uiso       1.00
       C24          C  0.4519319  0.5826738  0.5000011    0.00000       Uiso       1.00
       C25          C  0.9704634  0.8793623  0.5000011    0.00000       Uiso       1.00
       C26          C  0.4704643  0.3793617  0.5000011    0.00000       Uiso       1.00
       C27          C  0.0295349  0.1206389  0.5000011    0.00000       Uiso       1.00
       C28          C  0.5295340  0.6206395  0.5000011    0.00000       Uiso       1.00
       C29          C  0.0295349  0.8793623  0.5000011    0.00000       Uiso       1.00
       C30          C  0.5295340  0.3793617  0.5000011    0.00000       Uiso       1.00
       C31          C  0.9704634  0.1206389  0.5000011    0.00000       Uiso       1.00
       C32          C  0.4704643  0.6206395  0.5000011    0.00000       Uiso       1.00
        H9          H  0.9453191  0.8554280  0.5000011    0.00000       Uiso       1.00
       H10          H  0.4453200  0.3554274  0.5000011    0.00000       Uiso       1.00
       H11          H  0.0546792  0.1445732  0.5000011    0.00000       Uiso       1.00
       H12          H  0.5546784  0.6445738  0.5000011    0.00000       Uiso       1.00
       H13          H  0.0546792  0.8554280  0.5000011    0.00000       Uiso       1.00
       H14          H  0.5546784  0.3554274  0.5000011    0.00000       Uiso       1.00
       H15          H  0.9453191  0.1445732  0.5000011    0.00000       Uiso       1.00
       H16          H  0.4453200  0.6445738  0.5000011    0.00000       Uiso       1.00
        N9          N  0.4097358  0.5000006  0.5000011    0.00000       Uiso       1.00
       N10          N  0.9097350  0.0000000  0.5000011    0.00000       Uiso       1.00
       N11          N  0.5902625  0.5000006  0.5000011    0.00000       Uiso       1.00
       N12          N  0.0902634  0.0000000  0.5000011    0.00000       Uiso       1.00
       C33          C  0.3765716  0.4681390  0.5000011    0.00000       Uiso       1.00
       C34          C  0.8765708  0.9681396  0.5000011    0.00000       Uiso       1.00
       C35          C  0.6234267  0.5318623  0.5000011    0.00000       Uiso       1.00
       C36          C  0.1234275  0.0318616  0.5000011    0.00000       Uiso       1.00
       C37          C  0.6234267  0.4681390  0.5000011    0.00000       Uiso       1.00
       C38          C  0.1234275  0.9681396  0.5000011    0.00000       Uiso       1.00
       C39          C  0.3765716  0.5318623  0.5000011    0.00000       Uiso       1.00
       C40          C  0.8765708  0.0318616  0.5000011    0.00000       Uiso       1.00
       C41          C  0.3196043  0.4803315  0.5000011    0.00000       Uiso       1.00
       C42          C  0.8196034  0.9803321  0.5000011    0.00000       Uiso       1.00
       C43          C  0.6803941  0.5196698  0.5000011    0.00000       Uiso       1.00
       C44          C  0.1803949  0.0196691  0.5000011    0.00000       Uiso       1.00
       C45          C  0.6803941  0.4803315  0.5000011    0.00000       Uiso       1.00
       C46          C  0.1803949  0.9803321  0.5000011    0.00000       Uiso       1.00
       C47          C  0.3196043  0.5196698  0.5000011    0.00000       Uiso       1.00
       C48          C  0.8196034  0.0196691  0.5000011    0.00000       Uiso       1.00
       H17          H  0.2837649  0.4635125  0.5000011    0.00000       Uiso       1.00
       H18          H  0.7837640  0.9635130  0.5000011    0.00000       Uiso       1.00
       H19          H  0.7162334  0.5364888  0.5000011    0.00000       Uiso       1.00
       H20          H  0.2162343  0.0364882  0.5000011    0.00000       Uiso       1.00
       H21          H  0.7162334  0.4635125  0.5000011    0.00000       Uiso       1.00
       H22          H  0.2162343  0.9635130  0.5000011    0.00000       Uiso       1.00
       H23          H  0.2837649  0.5364888  0.5000011    0.00000       Uiso       1.00
       H24          H  0.7837640  0.0364882  0.5000011    0.00000       Uiso       1.00
       C49          C  0.8940889  0.9293929  0.5000011    0.00000       Uiso       1.00
       C50          C  0.3940897  0.4293923  0.5000011    0.00000       Uiso       1.00
       C51          C  0.1059094  0.0706083  0.5000011    0.00000       Uiso       1.00
       C52          C  0.6059086  0.5706089  0.5000011    0.00000       Uiso       1.00
       C53          C  0.1059094  0.9293929  0.5000011    0.00000       Uiso       1.00
       C54          C  0.6059086  0.4293923  0.5000011    0.00000       Uiso       1.00
       C55          C  0.8940889  0.0706083  0.5000011    0.00000       Uiso       1.00
       C56          C  0.3940897  0.5706089  0.5000011    0.00000       Uiso       1.00
       C57          C  0.8512833  0.9007971  0.5000011    0.00000       Uiso       1.00
       C58          C  0.3512841  0.4007965  0.5000011    0.00000       Uiso       1.00
       C59          C  0.1487150  0.0992041  0.5000011    0.00000       Uiso       1.00
       C60          C  0.6487142  0.5992047  0.5000011    0.00000       Uiso       1.00
       C61          C  0.1487150  0.9007971  0.5000011    0.00000       Uiso       1.00
       C62          C  0.6487142  0.4007965  0.5000011    0.00000       Uiso       1.00
       C63          C  0.8512833  0.0992041  0.5000011    0.00000       Uiso       1.00
       C64          C  0.3512841  0.5992047  0.5000011    0.00000       Uiso       1.00
       C65          C  0.3297761  0.3862753  0.6802889    0.00000       Uiso       1.00
       C66          C  0.8297753  0.8862759  0.6802889    0.00000       Uiso       1.00
       C67          C  0.6702222  0.6137259  0.6802889    0.00000       Uiso       1.00
       C68          C  0.1702230  0.1137253  0.6802889    0.00000       Uiso       1.00
       C69          C  0.6702222  0.3862753  0.3197132    0.00000       Uiso       1.00
       C70          C  0.1702230  0.8862759  0.3197132    0.00000       Uiso       1.00
       C71          C  0.3297761  0.6137259  0.3197132    0.00000       Uiso       1.00
       C72          C  0.8297753  0.1137253  0.3197132    0.00000       Uiso       1.00
       C73          C  0.6702222  0.6137259  0.3197132    0.00000       Uiso       1.00
       C74          C  0.1702230  0.1137253  0.3197132    0.00000       Uiso       1.00
       C75          C  0.3297761  0.3862753  0.3197132    0.00000       Uiso       1.00
       C76          C  0.8297753  0.8862759  0.3197132    0.00000       Uiso       1.00
       C77          C  0.3297761  0.6137259  0.6802889    0.00000       Uiso       1.00
       C78          C  0.8297753  0.1137253  0.6802889    0.00000       Uiso       1.00
       C79          C  0.6702222  0.3862753  0.6802889    0.00000       Uiso       1.00
       C80          C  0.1702230  0.8862759  0.6802889    0.00000       Uiso       1.00
       H25          H  0.8447753  0.8965564  0.8121184    0.00000       Uiso       1.00
       H26          H  0.3447761  0.3965559  0.8121184    0.00000       Uiso       1.00
       H27          H  0.1552231  0.1034447  0.8121184    0.00000       Uiso       1.00
       H28          H  0.6552222  0.6034454  0.8121184    0.00000       Uiso       1.00
       H29          H  0.1552231  0.8965564  0.1878837    0.00000       Uiso       1.00
       H30          H  0.6552222  0.3965559  0.1878837    0.00000       Uiso       1.00
       H31          H  0.8447753  0.1034447  0.1878837    0.00000       Uiso       1.00
       H32          H  0.3447761  0.6034454  0.1878837    0.00000       Uiso       1.00
       H33          H  0.1552231  0.1034447  0.1878837    0.00000       Uiso       1.00
       H34          H  0.6552222  0.6034454  0.1878837    0.00000       Uiso       1.00
       H35          H  0.8447753  0.8965564  0.1878837    0.00000       Uiso       1.00
       H36          H  0.3447761  0.3965559  0.1878837    0.00000       Uiso       1.00
       H37          H  0.8447753  0.1034447  0.8121184    0.00000       Uiso       1.00
       H38          H  0.3447761  0.6034454  0.8121184    0.00000       Uiso       1.00
       H39          H  0.1552231  0.8965564  0.8121184    0.00000       Uiso       1.00
       H40          H  0.6552222  0.3965559  0.8121184    0.00000       Uiso       1.00
       C81          C  0.7876315  0.8574499  0.6799913    0.00000       Uiso       1.00
       C82          C  0.2876323  0.3574492  0.6799913    0.00000       Uiso       1.00
       C83          C  0.2123668  0.1425513  0.6799913    0.00000       Uiso       1.00
       C84          C  0.7123660  0.6425519  0.6799913    0.00000       Uiso       1.00
       C85          C  0.2123668  0.8574499  0.3200108    0.00000       Uiso       1.00
       C86          C  0.7123660  0.3574492  0.3200108    0.00000       Uiso       1.00
       C87          C  0.7876315  0.1425513  0.3200108    0.00000       Uiso       1.00
       C88          C  0.2876323  0.6425519  0.3200108    0.00000       Uiso       1.00
       C89          C  0.2123668  0.1425513  0.3200108    0.00000       Uiso       1.00
       C90          C  0.7123660  0.6425519  0.3200108    0.00000       Uiso       1.00
       C91          C  0.7876315  0.8574499  0.3200108    0.00000       Uiso       1.00
       C92          C  0.2876323  0.3574492  0.3200108    0.00000       Uiso       1.00
       C93          C  0.7876315  0.1425513  0.6799913    0.00000       Uiso       1.00
       C94          C  0.2876323  0.6425519  0.6799913    0.00000       Uiso       1.00
       C95          C  0.2123668  0.8574499  0.6799913    0.00000       Uiso       1.00
       C96          C  0.7123660  0.3574492  0.6799913    0.00000       Uiso       1.00
       H41          H  0.7722877  0.8469845  0.8106996    0.00000       Uiso       1.00
       H42          H  0.2722885  0.3469839  0.8106996    0.00000       Uiso       1.00
       H43          H  0.2277106  0.1530167  0.8106996    0.00000       Uiso       1.00
       H44          H  0.7277098  0.6530173  0.8106996    0.00000       Uiso       1.00
       H45          H  0.2277106  0.8469845  0.1893025    0.00000       Uiso       1.00
       H46          H  0.7277098  0.3469839  0.1893025    0.00000       Uiso       1.00
       H47          H  0.7722877  0.1530167  0.1893025    0.00000       Uiso       1.00
       H48          H  0.2722885  0.6530173  0.1893025    0.00000       Uiso       1.00
       H49          H  0.2277106  0.1530167  0.1893025    0.00000       Uiso       1.00
       H50          H  0.7277098  0.6530173  0.1893025    0.00000       Uiso       1.00
       H51          H  0.7722877  0.8469845  0.1893025    0.00000       Uiso       1.00
       H52          H  0.2722885  0.3469839  0.1893025    0.00000       Uiso       1.00
       H53          H  0.7722877  0.1530167  0.8106996    0.00000       Uiso       1.00
       H54          H  0.2722885  0.6530173  0.8106996    0.00000       Uiso       1.00
       H55          H  0.2277106  0.8469845  0.8106996    0.00000       Uiso       1.00
       H56          H  0.7277098  0.3469839  0.8106996    0.00000       Uiso       1.00
       C97          C  0.7667334  0.8428392  0.5000011    0.00000       Uiso       1.00
       C98          C  0.2667342  0.3428386  0.5000011    0.00000       Uiso       1.00
       C99          C  0.2332649  0.1571620  0.5000011    0.00000       Uiso       1.00
      C100          C  0.7332640  0.6571626  0.5000011    0.00000       Uiso       1.00
      C101          C  0.2332649  0.8428392  0.5000011    0.00000       Uiso       1.00
      C102          C  0.7332640  0.3428386  0.5000011    0.00000       Uiso       1.00
      C103          C  0.7667334  0.1571620  0.5000011    0.00000       Uiso       1.00
      C104          C  0.2667342  0.6571626  0.5000011    0.00000       Uiso       1.00
        O1          O  0.1565757  0.7639557  0.5000011    0.00000       Uiso       1.00
        O2          O  0.6565749  0.2639551  0.5000011    0.00000       Uiso       1.00
        O3          O  0.8434226  0.2360455  0.5000011    0.00000       Uiso       1.00
        O4          O  0.3434234  0.7360461  0.5000011    0.00000       Uiso       1.00
        O5          O  0.8434226  0.7639557  0.5000011    0.00000       Uiso       1.00
        O6          O  0.3434234  0.2639551  0.5000011    0.00000       Uiso       1.00
        O7          O  0.1565757  0.2360455  0.5000011    0.00000       Uiso       1.00
        O8          O  0.6565749  0.7360461  0.5000011    0.00000       Uiso       1.00
        N1          N  0.0000000  0.9388584  0.5000011    0.00000       Uiso       1.00
        N1          N  0.4999991  0.4388579  0.5000011    0.00000       Uiso       1.00
        N1          N  0.0000000  0.0611428  0.5000011    0.00000       Uiso       1.00
        N1          N  0.4999991  0.5611433  0.5000011    0.00000       Uiso       1.00
       H13          H  0.0000000  0.0333900  0.5000011    0.00000       Uiso       1.00
        Cu         Cu  0.5000000  0.5000000  0.5000000    0.00000       Uiso       1.00
