data_crystal
 
_cell_length_a    38.76900
_cell_length_b    38.76900
_cell_length_c    5.34900
_cell_angle_alpha 90.00000
_cell_angle_beta  90.00000
_cell_angle_gamma 120.00000
 
_symmetry_space_group_name_Hall 'P 1'
_symmetry_space_group_name_H-M  'P 1'
 
loop_
_symmetry_equiv_pos_as_xyz
 'x,y,z' 
 
loop_
_atom_site_label
_atom_site_type_symbol
_atom_site_fract_x
_atom_site_fract_y
_atom_site_fract_z
_atom_site_charge
C          C       0.48147   0.48143   0.53229   0.0000000000
C          C       0.51857   0.00004   0.53229   0.0000000000
C          C       0.99996   0.51853   0.53229   0.0000000000
C          C       0.51853   0.51857   0.53229   0.0000000000
C          C       0.48143   0.99996   0.53229   0.0000000000
C          C       0.00004   0.48147   0.53229   0.0000000000
C          C       0.44389   0.47955   0.53101   0.0000000000
C          C       0.52045   0.96434   0.53101   0.0000000000
C          C       0.03566   0.55611   0.53101   0.0000000000
C          C       0.55611   0.52045   0.53101   0.0000000000
C          C       0.47955   0.03566   0.53101   0.0000000000
C          C       0.96434   0.44389   0.53101   0.0000000000
C          C       0.41530   0.45781   0.34385   0.0000000000
C          C       0.54219   0.95749   0.34385   0.0000000000
C          C       0.04251   0.58470   0.34385   0.0000000000
C          C       0.58470   0.54219   0.34385   0.0000000000
C          C       0.45781   0.04251   0.34385   0.0000000000
C          C       0.95749   0.41530   0.34385   0.0000000000
C          C       0.37840   0.45651   0.33713   0.0000000000
C          C       0.54350   0.92189   0.33713   0.0000000000
C          C       0.07811   0.62160   0.33713   0.0000000000
C          C       0.62160   0.54350   0.33713   0.0000000000
C          C       0.45651   0.07811   0.33713   0.0000000000
C          C       0.92189   0.37840   0.33713   0.0000000000
C          C       0.36892   0.47700   0.51826   0.0000000000
C          C       0.52300   0.89192   0.51826   0.0000000000
C          C       0.10808   0.63108   0.51826   0.0000000000
C          C       0.63108   0.52300   0.51826   0.0000000000
C          C       0.47700   0.10808   0.51826   0.0000000000
C          C       0.89192   0.36892   0.51826   0.0000000000
C          C       0.39710   0.49853   0.70584   0.0000000000
C          C       0.50147   0.89857   0.70584   0.0000000000
C          C       0.10143   0.60290   0.70584   0.0000000000
C          C       0.60290   0.50147   0.70584   0.0000000000
C          C       0.49853   0.10143   0.70584   0.0000000000
C          C       0.89857   0.39710   0.70584   0.0000000000
C          C       0.43374   0.49932   0.71337   0.0000000000
C          C       0.50068   0.93441   0.71337   0.0000000000
C          C       0.06559   0.56626   0.71337   0.0000000000
C          C       0.56626   0.50068   0.71337   0.0000000000
C          C       0.49932   0.06559   0.71337   0.0000000000
C          C       0.93441   0.43374   0.71337   0.0000000000
H          H       0.45317   0.51471   0.85298   0.0000000000
H          H       0.48530   0.93846   0.85298   0.0000000000
H          H       0.06154   0.54683   0.85298   0.0000000000
H          H       0.54683   0.48530   0.85298   0.0000000000
H          H       0.51471   0.06154   0.85298   0.0000000000
H          H       0.93846   0.45317   0.85298   0.0000000000
C          C       0.47975   0.44395   0.52734   0.0000000000
C          C       0.55605   0.03580   0.52734   0.0000000000
C          C       0.96420   0.52025   0.52734   0.0000000000
C          C       0.52025   0.55605   0.52734   0.0000000000
C          C       0.44395   0.96420   0.52734   0.0000000000
C          C       0.03580   0.47975   0.52734   0.0000000000
C          C       0.45787   0.41436   0.70894   0.0000000000
C          C       0.58564   0.04350   0.70894   0.0000000000
C          C       0.95650   0.54213   0.70894   0.0000000000
C          C       0.54213   0.58564   0.70894   0.0000000000
C          C       0.41436   0.95650   0.70894   0.0000000000
C          C       0.04350   0.45787   0.70894   0.0000000000
C          C       0.45614   0.37723   0.70317   0.0000000000
C          C       0.62277   0.07891   0.70317   0.0000000000
C          C       0.92109   0.54386   0.70317   0.0000000000
C          C       0.54386   0.62277   0.70317   0.0000000000
C          C       0.37723   0.92109   0.70317   0.0000000000
C          C       0.07891   0.45614   0.70317   0.0000000000
C          C       0.47670   0.36878   0.51780   0.0000000000
C          C       0.63122   0.10792   0.51780   0.0000000000
C          C       0.89208   0.52330   0.51780   0.0000000000
C          C       0.52330   0.63122   0.51780   0.0000000000
C          C       0.36878   0.89208   0.51780   0.0000000000
C          C       0.10792   0.47670   0.51780   0.0000000000
C          C       0.49802   0.39785   0.33334   0.0000000000
C          C       0.60215   0.10017   0.33334   0.0000000000
C          C       0.89983   0.50198   0.33334   0.0000000000
C          C       0.50198   0.60215   0.33334   0.0000000000
C          C       0.39785   0.89983   0.33334   0.0000000000
C          C       0.10017   0.49802   0.33334   0.0000000000
C          C       0.49919   0.43465   0.33804   0.0000000000
C          C       0.56535   0.06454   0.33804   0.0000000000
C          C       0.93546   0.50081   0.33804   0.0000000000
C          C       0.50081   0.56535   0.33804   0.0000000000
C          C       0.43465   0.93546   0.33804   0.0000000000
C          C       0.06454   0.49919   0.33804   0.0000000000
N          N       0.33473   0.47849   0.52099   0.0000000000
N          N       0.52151   0.85624   0.52099   0.0000000000
N          N       0.14376   0.66527   0.52099   0.0000000000
N          N       0.66527   0.52151   0.52099   0.0000000000
N          N       0.47849   0.14376   0.52099   0.0000000000
N          N       0.85624   0.33473   0.52099   0.0000000000
C          C       0.29784   0.45397   0.42793   0.0000000000
C          C       0.54603   0.84387   0.42793   0.0000000000
C          C       0.15613   0.70216   0.42793   0.0000000000
C          C       0.70216   0.54603   0.42793   0.0000000000
C          C       0.45397   0.15613   0.42793   0.0000000000
C          C       0.84387   0.29784   0.42793   0.0000000000
C          C       0.26835   0.46519   0.43891   0.0000000000
C          C       0.53481   0.80316   0.43891   0.0000000000
C          C       0.19684   0.73165   0.43891   0.0000000000
C          C       0.73165   0.53481   0.43891   0.0000000000
C          C       0.46519   0.19684   0.43891   0.0000000000
C          C       0.80316   0.26835   0.43891   0.0000000000
C          C       0.22731   0.43635   0.42958   0.0000000000
C          C       0.56365   0.79096   0.42958   0.0000000000
C          C       0.20904   0.77269   0.42958   0.0000000000
C          C       0.77269   0.56365   0.42958   0.0000000000
C          C       0.43635   0.20904   0.42958   0.0000000000
C          C       0.79096   0.22731   0.42958   0.0000000000
C          C       0.27877   0.50572   0.45639   0.0000000000
C          C       0.49429   0.77306   0.45639   0.0000000000
C          C       0.22694   0.72123   0.45639   0.0000000000
C          C       0.72123   0.49428   0.45639   0.0000000000
C          C       0.50572   0.22694   0.45639   0.0000000000
C          C       0.77306   0.27877   0.45639   0.0000000000
N          N       0.47393   0.33252   0.52302   0.0000000000
N          N       0.66748   0.14141   0.52302   0.0000000000
N          N       0.85859   0.52607   0.52302   0.0000000000
N          N       0.52607   0.66748   0.52302   0.0000000000
N          N       0.33252   0.85859   0.52302   0.0000000000
N          N       0.14141   0.47393   0.52302   0.0000000000
C          C       0.49958   0.32049   0.44595   0.0000000000
C          C       0.67951   0.17908   0.44595   0.0000000000
C          C       0.82092   0.50042   0.44595   0.0000000000
C          C       0.50042   0.67951   0.44595   0.0000000000
C          C       0.32049   0.82092   0.44595   0.0000000000
C          C       0.17908   0.49958   0.44595   0.0000000000
C          C       0.48814   0.27971   0.44839   0.0000000000
C          C       0.72029   0.20843   0.44839   0.0000000000
C          C       0.79157   0.51187   0.44839   0.0000000000
C          C       0.51187   0.72029   0.44839   0.0000000000
C          C       0.27971   0.79157   0.44839   0.0000000000
C          C       0.20843   0.48814   0.44839   0.0000000000
C          C       0.51695   0.26750   0.46012   0.0000000000
C          C       0.73250   0.24945   0.46012   0.0000000000
C          C       0.75055   0.48305   0.46012   0.0000000000
C          C       0.48305   0.73250   0.46012   0.0000000000
C          C       0.26750   0.75055   0.46012   0.0000000000
C          C       0.24945   0.51695   0.46012   0.0000000000
C          C       0.44757   0.24961   0.43528   0.0000000000
C          C       0.75039   0.19796   0.43528   0.0000000000
C          C       0.80204   0.55243   0.43528   0.0000000000
C          C       0.55243   0.75039   0.43528   0.0000000000
C          C       0.24961   0.80204   0.43528   0.0000000000
C          C       0.19796   0.44757   0.43528   0.0000000000
H          H       0.42128   0.44296   0.20830   0.0000000000
H          H       0.55704   0.97832   0.20830   0.0000000000
H          H       0.02168   0.57872   0.20830   0.0000000000
H          H       0.57872   0.55704   0.20830   0.0000000000
H          H       0.44296   0.02168   0.20830   0.0000000000
H          H       0.97832   0.42128   0.20830   0.0000000000
H          H       0.35900   0.44104   0.19621   0.0000000000
H          H       0.55896   0.91796   0.19621   0.0000000000
H          H       0.08204   0.64100   0.19621   0.0000000000
H          H       0.64100   0.55896   0.19621   0.0000000000
H          H       0.44104   0.08204   0.19621   0.0000000000
H          H       0.91796   0.35900   0.19621   0.0000000000
H          H       0.39111   0.51374   0.83931   0.0000000000
H          H       0.48626   0.87736   0.83931   0.0000000000
H          H       0.12264   0.60889   0.83931   0.0000000000
H          H       0.60889   0.48626   0.83931   0.0000000000
H          H       0.51374   0.12264   0.83931   0.0000000000
H          H       0.87736   0.39111   0.83931   0.0000000000
H          H       0.44300   0.41964   0.84780   0.0000000000
H          H       0.58036   0.02336   0.84780   0.0000000000
H          H       0.97665   0.55700   0.84780   0.0000000000
H          H       0.55700   0.58036   0.84780   0.0000000000
H          H       0.41964   0.97665   0.84780   0.0000000000
H          H       0.02336   0.44300   0.84780   0.0000000000
H          H       0.43996   0.35646   0.83683   0.0000000000
H          H       0.64354   0.08350   0.83683   0.0000000000
H          H       0.91650   0.56004   0.83683   0.0000000000
H          H       0.56004   0.64354   0.83683   0.0000000000
H          H       0.35646   0.91650   0.83683   0.0000000000
H          H       0.08350   0.43996   0.83683   0.0000000000
H          H       0.51236   0.39239   0.19196   0.0000000000
H          H       0.60761   0.11997   0.19196   0.0000000000
H          H       0.88003   0.48764   0.19196   0.0000000000
H          H       0.48764   0.60761   0.19196   0.0000000000
H          H       0.39239   0.88003   0.19196   0.0000000000
H          H       0.11997   0.51236   0.19196   0.0000000000
H          H       0.51431   0.45473   0.20084   0.0000000000
H          H       0.54527   0.05958   0.20084   0.0000000000
H          H       0.94042   0.48569   0.20084   0.0000000000
H          H       0.48569   0.54527   0.20084   0.0000000000
H          H       0.45473   0.94042   0.20084   0.0000000000
H          H       0.05958   0.51431   0.20084   0.0000000000
O          O       0.28955   0.42095   0.33574   0.0000000000
O          O       0.57905   0.86860   0.33574   0.0000000000
O          O       0.13140   0.71045   0.33574   0.0000000000
O          O       0.71045   0.57905   0.33574   0.0000000000
O          O       0.42095   0.13140   0.33574   0.0000000000
O          O       0.86860   0.28955   0.33574   0.0000000000
H          H       0.21822   0.40665   0.41864   0.0000000000
H          H       0.59335   0.81157   0.41864   0.0000000000
H          H       0.18843   0.78178   0.41864   0.0000000000
H          H       0.78178   0.59335   0.41864   0.0000000000
H          H       0.40665   0.18843   0.41864   0.0000000000
H          H       0.81157   0.21822   0.41864   0.0000000000
H          H       0.30800   0.52775   0.46411   0.0000000000
H          H       0.47225   0.78025   0.46411   0.0000000000
H          H       0.21975   0.69200   0.46411   0.0000000000
H          H       0.69200   0.47225   0.46411   0.0000000000
H          H       0.52775   0.21975   0.46411   0.0000000000
H          H       0.78025   0.30800   0.46411   0.0000000000
O          O       0.53403   0.34579   0.37625   0.0000000000
O          O       0.65421   0.18824   0.37625   0.0000000000
O          O       0.81176   0.46597   0.37625   0.0000000000
O          O       0.46597   0.65421   0.37625   0.0000000000
O          O       0.34579   0.81176   0.37625   0.0000000000
O          O       0.18824   0.53403   0.37625   0.0000000000
H          H       0.54665   0.28810   0.47169   0.0000000000
H          H       0.71190   0.25855   0.47169   0.0000000000
H          H       0.74145   0.45335   0.47169   0.0000000000
H          H       0.45335   0.71190   0.47169   0.0000000000
H          H       0.28810   0.74145   0.47169   0.0000000000
H          H       0.25855   0.54665   0.47169   0.0000000000
H          H       0.42557   0.25685   0.42696   0.0000000000
H          H       0.74315   0.16872   0.42696   0.0000000000
H          H       0.83128   0.57443   0.42696   0.0000000000
H          H       0.57443   0.74315   0.42696   0.0000000000
H          H       0.25685   0.83128   0.42696   0.0000000000
H          H       0.16872   0.42557   0.42696   0.0000000000
