data_DaTP
_audit_creation_date              0000-00-00
_audit_creation_method            'LanYouShi'
_symmetry_space_group_name_H-M    'P1'
_cell_length_a                    30.7521992
_cell_length_b                    30.7521992
_cell_length_c                    3.6326001
_cell_angle_alpha                 90.0000000
_cell_angle_beta                  90.0000000
_cell_angle_gamma                 120.0000000
loop_
_atom_site_label
_atom_site_type_symbol
_atom_site_fract_x
_atom_site_fract_y
_atom_site_fract_z
_atom_site_U_iso_or_equiv
_atom_site_adp_type
_atom_site_occupancy
        C1          C  0.8956252  0.4301690  0.5000067    0.00000       Uiso       1.00
        C2          C  0.3960012  0.9298409  0.5000067    0.00000       Uiso       1.00
        C3          C  0.5698323  0.4654562  0.5000067    0.00000       Uiso       1.00
        C4          C  0.0701603  0.4661615  0.5000067    0.00000       Uiso       1.00
        C5          C  0.5345450  0.1043760  0.5000067    0.00000       Uiso       1.00
        C6          C  0.5338397  0.6040000  0.5000067    0.00000       Uiso       1.00
        C7          C  0.1043760  0.5698322  0.5000067    0.00000       Uiso       1.00
        C8          C  0.6040000  0.0701603  0.5000067    0.00000       Uiso       1.00
        C9          C  0.4301690  0.5345450  0.5000067    0.00000       Uiso       1.00
       C10          C  0.9298409  0.5338397  0.5000067    0.00000       Uiso       1.00
       C11          C  0.4654562  0.8956251  0.5000067    0.00000       Uiso       1.00
       C12          C  0.4661615  0.3960012  0.5000067    0.00000       Uiso       1.00
       C13          C  0.9477691  0.4648061  0.5000067    0.00000       Uiso       1.00
       C14          C  0.4478402  0.9650375  0.5000067    0.00000       Uiso       1.00
       C15          C  0.5351951  0.4829630  0.5000067    0.00000       Uiso       1.00
       C16          C  0.0349638  0.4828039  0.5000067    0.00000       Uiso       1.00
       C17          C  0.5170382  0.0522321  0.5000067    0.00000       Uiso       1.00
       C18          C  0.5171973  0.5521611  0.5000067    0.00000       Uiso       1.00
       C19          C  0.0522321  0.5351951  0.5000067    0.00000       Uiso       1.00
       C20          C  0.5521611  0.0349637  0.5000067    0.00000       Uiso       1.00
       C21          C  0.4648061  0.5170382  0.5000067    0.00000       Uiso       1.00
       C22          C  0.9650375  0.5171973  0.5000067    0.00000       Uiso       1.00
       C23          C  0.4829630  0.9477691  0.5000067    0.00000       Uiso       1.00
       C24          C  0.4828039  0.4478402  0.5000067    0.00000       Uiso       1.00
        H1          H  0.8831766  0.3924445  0.5000067    0.00000       Uiso       1.00
        H2          H  0.3701517  0.9415014  0.5000067    0.00000       Uiso       1.00
        H3          H  0.6075568  0.4907321  0.5000067    0.00000       Uiso       1.00
        H4          H  0.0584998  0.4286515  0.5000067    0.00000       Uiso       1.00
        H5          H  0.5092691  0.1168246  0.5000067    0.00000       Uiso       1.00
        H6          H  0.5713497  0.6298494  0.5000067    0.00000       Uiso       1.00
        H7          H  0.1168247  0.6075568  0.5000067    0.00000       Uiso       1.00
        H8          H  0.6298494  0.0584998  0.5000067    0.00000       Uiso       1.00
        H9          H  0.3924445  0.5092691  0.5000067    0.00000       Uiso       1.00
       H10          H  0.9415014  0.5713497  0.5000067    0.00000       Uiso       1.00
       H11          H  0.4907321  0.8831766  0.5000067    0.00000       Uiso       1.00
       H12          H  0.4286515  0.3701517  0.5000067    0.00000       Uiso       1.00
        N1          N  0.5983443  0.1888698  0.5000067    0.00000       Uiso       1.00
        N2          N  0.8111314  0.4094745  0.5000067    0.00000       Uiso       1.00
        N3          N  0.5905267  0.4016569  0.5000067    0.00000       Uiso       1.00
        N4          N  0.4016569  0.8111314  0.5000067    0.00000       Uiso       1.00
        N5          N  0.1888698  0.5905267  0.5000067    0.00000       Uiso       1.00
        N6          N  0.4094745  0.5983443  0.5000067    0.00000       Uiso       1.00
       C25          C  0.8601248  0.4464129  0.5000067    0.00000       Uiso       1.00
       C26          C  0.3793550  0.8781591  0.5000067    0.00000       Uiso       1.00
       C27          C  0.5535883  0.4137119  0.5000067    0.00000       Uiso       1.00
       C28          C  0.1218421  0.5011971  0.5000067    0.00000       Uiso       1.00
       C29          C  0.5862893  0.1398764  0.5000067    0.00000       Uiso       1.00
       C30          C  0.4988041  0.6206461  0.5000067    0.00000       Uiso       1.00
       C31          C  0.1398764  0.5535883  0.5000067    0.00000       Uiso       1.00
       C32          C  0.6206462  0.1218421  0.5000067    0.00000       Uiso       1.00
       C33          C  0.4464129  0.5862893  0.5000067    0.00000       Uiso       1.00
       C34          C  0.8781591  0.4988041  0.5000067    0.00000       Uiso       1.00
       C35          C  0.4137119  0.8601248  0.5000067    0.00000       Uiso       1.00
       C36          C  0.5011972  0.3793550  0.5000067    0.00000       Uiso       1.00
       C37          C  0.9829473  0.4480740  0.5000067    0.00000       Uiso       1.00
       C38          C  0.5519272  0.5348733  0.5000067    0.00000       Uiso       1.00
       C39          C  0.4651279  0.0170539  0.5000067    0.00000       Uiso       1.00
       C40          C  0.0170539  0.5519273  0.5000067    0.00000       Uiso       1.00
       C41          C  0.4480740  0.4651279  0.5000067    0.00000       Uiso       1.00
       C42          C  0.5348733  0.9829472  0.5000067    0.00000       Uiso       1.00
       H13          H  0.9705464  0.4103628  0.5000067    0.00000       Uiso       1.00
       H14          H  0.5896385  0.5601836  0.5000067    0.00000       Uiso       1.00
       H15          H  0.4398176  0.0294548  0.5000067    0.00000       Uiso       1.00
       H16          H  0.0294548  0.5896385  0.5000067    0.00000       Uiso       1.00
       H17          H  0.4103628  0.4398176  0.5000067    0.00000       Uiso       1.00
       H18          H  0.5601836  0.9705464  0.5000067    0.00000       Uiso       1.00
       C43          C  0.7689815  0.4133423  0.5000067    0.00000       Uiso       1.00
       C44          C  0.5866589  0.3556392  0.5000067    0.00000       Uiso       1.00
       C45          C  0.6443620  0.2310197  0.5000067    0.00000       Uiso       1.00
       C46          C  0.2310197  0.5866589  0.5000067    0.00000       Uiso       1.00
       C47          C  0.4133423  0.6443620  0.5000067    0.00000       Uiso       1.00
       C48          C  0.3556392  0.7689815  0.5000067    0.00000       Uiso       1.00
       C49          C  0.2815678  0.6270878  0.5000067    0.00000       Uiso       1.00
       C50          C  0.3729134  0.6544812  0.5000067    0.00000       Uiso       1.00
       C51          C  0.3455200  0.7184334  0.5000067    0.00000       Uiso       1.00
       C52          C  0.7184334  0.3729134  0.5000067    0.00000       Uiso       1.00
       C53          C  0.6270878  0.3455200  0.5000067    0.00000       Uiso       1.00
       C54          C  0.6544812  0.2815678  0.5000067    0.00000       Uiso       1.00
       C55          C  0.3215081  0.6162050  0.5000067    0.00000       Uiso       1.00
       C56          C  0.3837962  0.7053043  0.5000067    0.00000       Uiso       1.00
       C57          C  0.2946969  0.6784931  0.5000067    0.00000       Uiso       1.00
       C58          C  0.6784931  0.3837962  0.5000067    0.00000       Uiso       1.00
       C59          C  0.6162050  0.2946969  0.5000067    0.00000       Uiso       1.00
       C60          C  0.7053043  0.3215081  0.5000067    0.00000       Uiso       1.00
        O1          O  0.2602339  0.6891245  0.5000067    0.00000       Uiso       1.00
        O2          O  0.3108768  0.5711107  0.5000067    0.00000       Uiso       1.00
        O3          O  0.4288905  0.7397673  0.5000067    0.00000       Uiso       1.00
        O4          O  0.7397673  0.3108768  0.5000067    0.00000       Uiso       1.00
        O5          O  0.6891245  0.4288905  0.5000067    0.00000       Uiso       1.00
        O6          O  0.5711107  0.2602339  0.5000067    0.00000       Uiso       1.00
       H19          H  0.5702307  0.1944980  0.5000067    0.00000       Uiso       1.00
       H20          H  0.7745650  0.4489257  0.5000067    0.00000       Uiso       1.00
       H21          H  0.3415585  0.8539448  0.5000067    0.00000       Uiso       1.00
       H22          H  0.8055031  0.3757326  0.5000067    0.00000       Uiso       1.00
       H23          H  0.5510756  0.3256394  0.5000067    0.00000       Uiso       1.00
       H24          H  0.1460564  0.4876149  0.5000067    0.00000       Uiso       1.00
       H25          H  0.6242685  0.4297705  0.5000067    0.00000       Uiso       1.00
       H26          H  0.6743618  0.2254362  0.5000067    0.00000       Uiso       1.00
       H27          H  0.5123864  0.6584427  0.5000067    0.00000       Uiso       1.00
       H28          H  0.4297705  0.8055032  0.5000067    0.00000       Uiso       1.00
       H29          H  0.2254362  0.5510756  0.5000067    0.00000       Uiso       1.00
       H30          H  0.6584427  0.1460563  0.5000067    0.00000       Uiso       1.00
       H31          H  0.1944980  0.6242686  0.5000067    0.00000       Uiso       1.00
       H32          H  0.4489256  0.6743618  0.5000067    0.00000       Uiso       1.00
       H33          H  0.8539449  0.5123863  0.5000067    0.00000       Uiso       1.00
       H34          H  0.3757326  0.5702307  0.5000067    0.00000       Uiso       1.00
       H35          H  0.3256394  0.7745650  0.5000067    0.00000       Uiso       1.00
       H36          H  0.4876149  0.3415585  0.5000067    0.00000       Uiso       1.00
