data_crystal
 
_cell_length_a    30.75220
_cell_length_b    30.75220
_cell_length_c    3.63260
_cell_angle_alpha 90.00000
_cell_angle_beta  90.00000
_cell_angle_gamma 120.00000
 
_symmetry_space_group_name_Hall 'P 1'
_symmetry_space_group_name_H-M  'P 1'
 
loop_
_symmetry_equiv_pos_as_xyz
 'x,y,z' 
 
loop_
_atom_site_label
_atom_site_type_symbol
_atom_site_fract_x
_atom_site_fract_y
_atom_site_fract_z
_atom_site_charge
C          C       0.89563   0.43017   0.50001   0.0000000000
C          C       0.39600   0.92984   0.50001   0.0000000000
C          C       0.56983   0.46546   0.50001   0.0000000000
C          C       0.07016   0.46616   0.50001   0.0000000000
C          C       0.53455   0.10438   0.50001   0.0000000000
C          C       0.53384   0.60400   0.50001   0.0000000000
C          C       0.10438   0.56983   0.50001   0.0000000000
C          C       0.60400   0.07016   0.50001   0.0000000000
C          C       0.43017   0.53455   0.50001   0.0000000000
C          C       0.92984   0.53384   0.50001   0.0000000000
C          C       0.46546   0.89563   0.50001   0.0000000000
C          C       0.46616   0.39600   0.50001   0.0000000000
C          C       0.94777   0.46481   0.50001   0.0000000000
C          C       0.44784   0.96504   0.50001   0.0000000000
C          C       0.53520   0.48296   0.50001   0.0000000000
C          C       0.03496   0.48280   0.50001   0.0000000000
C          C       0.51704   0.05223   0.50001   0.0000000000
C          C       0.51720   0.55216   0.50001   0.0000000000
C          C       0.05223   0.53520   0.50001   0.0000000000
C          C       0.55216   0.03496   0.50001   0.0000000000
C          C       0.46481   0.51704   0.50001   0.0000000000
C          C       0.96504   0.51720   0.50001   0.0000000000
C          C       0.48296   0.94777   0.50001   0.0000000000
C          C       0.48280   0.44784   0.50001   0.0000000000
H          H       0.88318   0.39244   0.50001   0.0000000000
H          H       0.37015   0.94150   0.50001   0.0000000000
H          H       0.60756   0.49073   0.50001   0.0000000000
H          H       0.05850   0.42865   0.50001   0.0000000000
H          H       0.50927   0.11682   0.50001   0.0000000000
H          H       0.57135   0.62985   0.50001   0.0000000000
H          H       0.11682   0.60756   0.50001   0.0000000000
H          H       0.62985   0.05850   0.50001   0.0000000000
H          H       0.39244   0.50927   0.50001   0.0000000000
H          H       0.94150   0.57135   0.50001   0.0000000000
H          H       0.49073   0.88318   0.50001   0.0000000000
H          H       0.42865   0.37015   0.50001   0.0000000000
N          N       0.59834   0.18887   0.50001   0.0000000000
N          N       0.81113   0.40947   0.50001   0.0000000000
N          N       0.59053   0.40166   0.50001   0.0000000000
N          N       0.40166   0.81113   0.50001   0.0000000000
N          N       0.18887   0.59053   0.50001   0.0000000000
N          N       0.40947   0.59834   0.50001   0.0000000000
C          C       0.86012   0.44641   0.50001   0.0000000000
C          C       0.37935   0.87816   0.50001   0.0000000000
C          C       0.55359   0.41371   0.50001   0.0000000000
C          C       0.12184   0.50120   0.50001   0.0000000000
C          C       0.58629   0.13988   0.50001   0.0000000000
C          C       0.49880   0.62065   0.50001   0.0000000000
C          C       0.13988   0.55359   0.50001   0.0000000000
C          C       0.62065   0.12184   0.50001   0.0000000000
C          C       0.44641   0.58629   0.50001   0.0000000000
C          C       0.87816   0.49880   0.50001   0.0000000000
C          C       0.41371   0.86012   0.50001   0.0000000000
C          C       0.50120   0.37935   0.50001   0.0000000000
C          C       0.98295   0.44807   0.50001   0.0000000000
C          C       0.55193   0.53487   0.50001   0.0000000000
C          C       0.46513   0.01705   0.50001   0.0000000000
C          C       0.01705   0.55193   0.50001   0.0000000000
C          C       0.44807   0.46513   0.50001   0.0000000000
C          C       0.53487   0.98295   0.50001   0.0000000000
H          H       0.97055   0.41036   0.50001   0.0000000000
H          H       0.58964   0.56018   0.50001   0.0000000000
H          H       0.43982   0.02945   0.50001   0.0000000000
H          H       0.02945   0.58964   0.50001   0.0000000000
H          H       0.41036   0.43982   0.50001   0.0000000000
H          H       0.56018   0.97055   0.50001   0.0000000000
C          C       0.76898   0.41334   0.50001   0.0000000000
C          C       0.58666   0.35564   0.50001   0.0000000000
C          C       0.64436   0.23102   0.50001   0.0000000000
C          C       0.23102   0.58666   0.50001   0.0000000000
C          C       0.41334   0.64436   0.50001   0.0000000000
C          C       0.35564   0.76898   0.50001   0.0000000000
C          C       0.28157   0.62709   0.50001   0.0000000000
C          C       0.37291   0.65448   0.50001   0.0000000000
C          C       0.34552   0.71843   0.50001   0.0000000000
C          C       0.71843   0.37291   0.50001   0.0000000000
C          C       0.62709   0.34552   0.50001   0.0000000000
C          C       0.65448   0.28157   0.50001   0.0000000000
C          C       0.32151   0.61621   0.50001   0.0000000000
C          C       0.38380   0.70530   0.50001   0.0000000000
C          C       0.29470   0.67849   0.50001   0.0000000000
C          C       0.67849   0.38380   0.50001   0.0000000000
C          C       0.61621   0.29470   0.50001   0.0000000000
C          C       0.70530   0.32151   0.50001   0.0000000000
O          O       0.26023   0.68912   0.50001   0.0000000000
O          O       0.31088   0.57111   0.50001   0.0000000000
O          O       0.42889   0.73977   0.50001   0.0000000000
O          O       0.73977   0.31088   0.50001   0.0000000000
O          O       0.68912   0.42889   0.50001   0.0000000000
O          O       0.57111   0.26023   0.50001   0.0000000000
H          H       0.57023   0.19450   0.50001   0.0000000000
H          H       0.77456   0.44893   0.50001   0.0000000000
H          H       0.34156   0.85394   0.50001   0.0000000000
H          H       0.80550   0.37573   0.50001   0.0000000000
H          H       0.55108   0.32564   0.50001   0.0000000000
H          H       0.14606   0.48761   0.50001   0.0000000000
H          H       0.62427   0.42977   0.50001   0.0000000000
H          H       0.67436   0.22544   0.50001   0.0000000000
H          H       0.51239   0.65844   0.50001   0.0000000000
H          H       0.42977   0.80550   0.50001   0.0000000000
H          H       0.22544   0.55108   0.50001   0.0000000000
H          H       0.65844   0.14606   0.50001   0.0000000000
H          H       0.19450   0.62427   0.50001   0.0000000000
H          H       0.44893   0.67436   0.50001   0.0000000000
H          H       0.85394   0.51239   0.50001   0.0000000000
H          H       0.37573   0.57023   0.50001   0.0000000000
H          H       0.32564   0.77456   0.50001   0.0000000000
H          H       0.48761   0.34156   0.50001   0.0000000000
