data_DBA-COF_1
_audit_creation_date              0000-00-00
_audit_creation_method            'LanYouShi'
_symmetry_space_group_name_H-M    'P1'
_cell_length_a                    35.5829010
_cell_length_b                    35.5829010
_cell_length_c                    3.4000001
_cell_angle_alpha                 90.0000000
_cell_angle_beta                  90.0000000
_cell_angle_gamma                 120.0000000
loop_
_atom_site_label
_atom_site_type_symbol
_atom_site_fract_x
_atom_site_fract_y
_atom_site_fract_z
_atom_site_U_iso_or_equiv
_atom_site_adp_type
_atom_site_occupancy
        O1          O  0.4037811  0.5269560  0.5000000    0.00000       Uiso       1.00
        O1          O  0.4730440  0.5962189  0.5000000    0.00000       Uiso       1.00
        C1          C  0.3982596  0.5629503  0.5000000    0.00000       Uiso       1.00
        C2          C  0.4370497  0.6017404  0.5000000    0.00000       Uiso       1.00
        C3          C  0.3584412  0.5618719  0.5000000    0.00000       Uiso       1.00
        C4          C  0.4381281  0.6415588  0.5000000    0.00000       Uiso       1.00
        C5          C  0.3584212  0.6015406  0.5000000    0.00000       Uiso       1.00
        C6          C  0.3984594  0.6415788  0.5000000    0.00000       Uiso       1.00
        C7          C  0.3173547  0.6007318  0.5000000    0.00000       Uiso       1.00
        C8          C  0.3992681  0.6826453  0.5000000    0.00000       Uiso       1.00
        B1          B  0.4514225  0.5485775  0.5000000    0.00000       Uiso       1.00
        C9          C  0.5229390  0.4770610  0.5000000    0.00000       Uiso       1.00
       C10          C  0.4773160  0.4545944  0.5000000    0.00000       Uiso       1.00
       C11          C  0.5454056  0.5226840  0.5000000    0.00000       Uiso       1.00
        H1          H  0.4592745  0.4193949  0.5000000    0.00000       Uiso       1.00
        H2          H  0.5806051  0.5407254  0.5000000    0.00000       Uiso       1.00
        H1          H  0.3282778  0.5309697  0.5000000    0.00000       Uiso       1.00
        H1          H  0.4690303  0.6717222  0.5000000    0.00000       Uiso       1.00
        O1          O  0.4730441  0.8768252  0.5000000    0.00000       Uiso       1.00
        O1          O  0.4037811  0.8768252  0.5000000    0.00000       Uiso       1.00
        C1          C  0.4370497  0.8353093  0.5000000    0.00000       Uiso       1.00
        C2          C  0.3982596  0.8353093  0.5000000    0.00000       Uiso       1.00
        C3          C  0.4381280  0.7965692  0.5000000    0.00000       Uiso       1.00
        C4          C  0.3584412  0.7965692  0.5000000    0.00000       Uiso       1.00
        C5          C  0.3984593  0.7568805  0.5000000    0.00000       Uiso       1.00
        C6          C  0.3584212  0.7568805  0.5000000    0.00000       Uiso       1.00
        C7          C  0.3992681  0.7166228  0.5000000    0.00000       Uiso       1.00
        C8          C  0.3173547  0.7166228  0.5000000    0.00000       Uiso       1.00
        B1          B  0.4514225  0.9028449  0.5000000    0.00000       Uiso       1.00
        H1          H  0.4690303  0.7973081  0.5000000    0.00000       Uiso       1.00
        H1          H  0.3282778  0.7973081  0.5000000    0.00000       Uiso       1.00
        O1          O  0.1231748  0.5962189  0.5000000    0.00000       Uiso       1.00
        O1          O  0.1231748  0.5269560  0.5000000    0.00000       Uiso       1.00
        C1          C  0.1646907  0.6017404  0.5000000    0.00000       Uiso       1.00
        C2          C  0.1646907  0.5629503  0.5000000    0.00000       Uiso       1.00
        C3          C  0.2034307  0.6415588  0.5000000    0.00000       Uiso       1.00
        C4          C  0.2034307  0.5618719  0.5000000    0.00000       Uiso       1.00
        C5          C  0.2431194  0.6415788  0.5000000    0.00000       Uiso       1.00
        C6          C  0.2431194  0.6015406  0.5000000    0.00000       Uiso       1.00
        C7          C  0.2833772  0.6826453  0.5000000    0.00000       Uiso       1.00
        C8          C  0.2833772  0.6007318  0.5000000    0.00000       Uiso       1.00
        B1          B  0.0971551  0.5485775  0.5000000    0.00000       Uiso       1.00
        H1          H  0.2026919  0.6717222  0.5000000    0.00000       Uiso       1.00
        H1          H  0.2026919  0.5309697  0.5000000    0.00000       Uiso       1.00
        O1          O  0.5962189  0.4730440  0.5000000    0.00000       Uiso       1.00
        O1          O  0.5269559  0.4037811  0.5000000    0.00000       Uiso       1.00
        C1          C  0.6017404  0.4370497  0.5000000    0.00000       Uiso       1.00
        C2          C  0.5629503  0.3982596  0.5000000    0.00000       Uiso       1.00
        C3          C  0.6415588  0.4381281  0.5000000    0.00000       Uiso       1.00
        C4          C  0.5618719  0.3584412  0.5000000    0.00000       Uiso       1.00
        C5          C  0.6415787  0.3984593  0.5000000    0.00000       Uiso       1.00
        C6          C  0.6015406  0.3584212  0.5000000    0.00000       Uiso       1.00
        C7          C  0.6826453  0.3992681  0.5000000    0.00000       Uiso       1.00
        C8          C  0.6007319  0.3173547  0.5000000    0.00000       Uiso       1.00
        B1          B  0.5485775  0.4514225  0.5000000    0.00000       Uiso       1.00
        C9          C  0.4770609  0.5229390  0.5000000    0.00000       Uiso       1.00
       C10          C  0.5226840  0.5454056  0.5000000    0.00000       Uiso       1.00
       C11          C  0.4545944  0.4773160  0.5000000    0.00000       Uiso       1.00
        H1          H  0.5407255  0.5806051  0.5000000    0.00000       Uiso       1.00
        H2          H  0.4193949  0.4592745  0.5000000    0.00000       Uiso       1.00
        H1          H  0.6717222  0.4690303  0.5000000    0.00000       Uiso       1.00
        H1          H  0.5309697  0.3282778  0.5000000    0.00000       Uiso       1.00
        O1          O  0.5269560  0.1231748  0.5000000    0.00000       Uiso       1.00
        O1          O  0.5962189  0.1231748  0.5000000    0.00000       Uiso       1.00
        C1          C  0.5629503  0.1646907  0.5000000    0.00000       Uiso       1.00
        C2          C  0.6017404  0.1646907  0.5000000    0.00000       Uiso       1.00
        C3          C  0.5618719  0.2034307  0.5000000    0.00000       Uiso       1.00
        C4          C  0.6415588  0.2034307  0.5000000    0.00000       Uiso       1.00
        C5          C  0.6015406  0.2431194  0.5000000    0.00000       Uiso       1.00
        C6          C  0.6415787  0.2431194  0.5000000    0.00000       Uiso       1.00
        C7          C  0.6007318  0.2833772  0.5000000    0.00000       Uiso       1.00
        C8          C  0.6826453  0.2833772  0.5000000    0.00000       Uiso       1.00
        B1          B  0.5485775  0.0971550  0.5000000    0.00000       Uiso       1.00
        H1          H  0.5309697  0.2026919  0.5000000    0.00000       Uiso       1.00
        H1          H  0.6717222  0.2026919  0.5000000    0.00000       Uiso       1.00
        O1          O  0.8768251  0.4037811  0.5000000    0.00000       Uiso       1.00
        O1          O  0.8768252  0.4730440  0.5000000    0.00000       Uiso       1.00
        C1          C  0.8353093  0.3982596  0.5000000    0.00000       Uiso       1.00
        C2          C  0.8353093  0.4370497  0.5000000    0.00000       Uiso       1.00
        C3          C  0.7965693  0.3584412  0.5000000    0.00000       Uiso       1.00
        C4          C  0.7965692  0.4381281  0.5000000    0.00000       Uiso       1.00
        C5          C  0.7568806  0.3584212  0.5000000    0.00000       Uiso       1.00
        C6          C  0.7568806  0.3984593  0.5000000    0.00000       Uiso       1.00
        C7          C  0.7166228  0.3173547  0.5000000    0.00000       Uiso       1.00
        C8          C  0.7166228  0.3992681  0.5000000    0.00000       Uiso       1.00
        B1          B  0.9028449  0.4514225  0.5000000    0.00000       Uiso       1.00
        H1          H  0.7973081  0.3282778  0.5000000    0.00000       Uiso       1.00
        H1          H  0.7973081  0.4690303  0.5000000    0.00000       Uiso       1.00
        C1          C  0.5229390  0.0458780  0.5000000    0.00000       Uiso       1.00
        C2          C  0.5454056  0.0227216  0.5000000    0.00000       Uiso       1.00
        C3          C  0.4773160  0.0227216  0.5000000    0.00000       Uiso       1.00
        H1          H  0.5806051  0.0398796  0.5000000    0.00000       Uiso       1.00
        H2          H  0.4592745  0.0398796  0.5000000    0.00000       Uiso       1.00
        C1          C  0.9541219  0.4770610  0.5000000    0.00000       Uiso       1.00
        C2          C  0.9772784  0.5226840  0.5000000    0.00000       Uiso       1.00
        C3          C  0.9772784  0.4545944  0.5000000    0.00000       Uiso       1.00
        H1          H  0.9601203  0.5407254  0.5000000    0.00000       Uiso       1.00
        H2          H  0.9601203  0.4193949  0.5000000    0.00000       Uiso       1.00
        C1          C  0.4770610  0.9541219  0.5000000    0.00000       Uiso       1.00
        C2          C  0.4545944  0.9772784  0.5000000    0.00000       Uiso       1.00
        C3          C  0.5226840  0.9772784  0.5000000    0.00000       Uiso       1.00
        H1          H  0.4193949  0.9601203  0.5000000    0.00000       Uiso       1.00
        H2          H  0.5407255  0.9601203  0.5000000    0.00000       Uiso       1.00
        C1          C  0.0458780  0.5229390  0.5000000    0.00000       Uiso       1.00
        C2          C  0.0227216  0.4773160  0.5000000    0.00000       Uiso       1.00
        C3          C  0.0227216  0.5454056  0.5000000    0.00000       Uiso       1.00
        H1          H  0.0398797  0.4592745  0.5000000    0.00000       Uiso       1.00
        H2          H  0.0398796  0.5806051  0.5000000    0.00000       Uiso       1.00
