data_crystal
 
_cell_length_a    35.55550
_cell_length_b    35.55550
_cell_length_c    3.53470
_cell_angle_alpha 90.00000
_cell_angle_beta  90.00000
_cell_angle_gamma 90.00000
 
_symmetry_space_group_name_Hall 'P 1'
_symmetry_space_group_name_H-M  'P 1'
 
loop_
_symmetry_equiv_pos_as_xyz
 'x,y,z' 
 
loop_
_atom_site_label
_atom_site_type_symbol
_atom_site_fract_x
_atom_site_fract_y
_atom_site_fract_z
_atom_site_charge
C          C       0.48025   0.68375   0.50000   0.0000000000
C          C       0.54043   0.65006   0.50000   0.0000000000
C          C       0.51966   0.61623   0.50000   0.0000000000
C          C       0.53098   0.57876   0.50000   0.0000000000
C          C       0.51975   0.31626   0.50000   0.0000000000
C          C       0.45957   0.34994   0.50000   0.0000000000
C          C       0.48034   0.38378   0.50000   0.0000000000
C          C       0.46902   0.42124   0.50000   0.0000000000
C          C       0.31626   0.48025   0.50000   0.0000000000
C          C       0.34994   0.54043   0.50000   0.0000000000
C          C       0.38378   0.51966   0.50000   0.0000000000
C          C       0.42124   0.53098   0.50000   0.0000000000
C          C       0.68375   0.51975   0.50000   0.0000000000
C          C       0.65006   0.45957   0.50000   0.0000000000
C          C       0.61623   0.48034   0.50000   0.0000000000
C          C       0.57876   0.46902   0.50000   0.0000000000
C          C       0.51975   0.68375   0.50000   0.0000000000
C          C       0.45957   0.65006   0.50000   0.0000000000
C          C       0.48034   0.61623   0.50000   0.0000000000
C          C       0.46902   0.57876   0.50000   0.0000000000
C          C       0.48025   0.31626   0.50000   0.0000000000
C          C       0.54043   0.34994   0.50000   0.0000000000
C          C       0.51966   0.38378   0.50000   0.0000000000
C          C       0.53098   0.42124   0.50000   0.0000000000
C          C       0.68375   0.48025   0.50000   0.0000000000
C          C       0.65006   0.54043   0.50000   0.0000000000
C          C       0.61623   0.51966   0.50000   0.0000000000
C          C       0.57876   0.53098   0.50000   0.0000000000
C          C       0.31626   0.51975   0.50000   0.0000000000
C          C       0.34994   0.45957   0.50000   0.0000000000
C          C       0.38378   0.48034   0.50000   0.0000000000
C          C       0.42124   0.46902   0.50000   0.0000000000
O          O       0.53321   0.71913   0.50000   0.0000000000
O          O       0.46679   0.28087   0.50000   0.0000000000
O          O       0.28087   0.53321   0.50000   0.0000000000
O          O       0.71913   0.46679   0.50000   0.0000000000
O          O       0.46679   0.71913   0.50000   0.0000000000
O          O       0.53321   0.28087   0.50000   0.0000000000
O          O       0.71913   0.53321   0.50000   0.0000000000
O          O       0.28087   0.46679   0.50000   0.0000000000
H          H       0.56914   0.65050   0.50000   0.0000000000
H          H       0.43086   0.34950   0.50000   0.0000000000
H          H       0.34950   0.56914   0.50000   0.0000000000
H          H       0.65050   0.43086   0.50000   0.0000000000
H          H       0.43086   0.65050   0.50000   0.0000000000
H          H       0.56914   0.34950   0.50000   0.0000000000
H          H       0.65050   0.56914   0.50000   0.0000000000
H          H       0.34950   0.43086   0.50000   0.0000000000
N          N       0.56700   0.56700   0.50000   0.0000000000
N          N       0.43300   0.43300   0.50000   0.0000000000
N          N       0.43300   0.56700   0.50000   0.0000000000
N          N       0.56700   0.43300   0.50000   0.0000000000
B          B       0.50000   0.74241   0.50000   0.0000000000
B          B       0.50000   0.25759   0.50000   0.0000000000
B          B       0.25759   0.50000   0.50000   0.0000000000
B          B       0.74241   0.50000   0.50000   0.0000000000
N          N       0.50000   0.09505   0.50000   0.0000000000
C          C       0.50000   0.13402   0.50000   0.0000000000
C          C       0.50000   0.21568   0.50000   0.0000000000
N          N       0.50000   0.90495   0.50000   0.0000000000
C          C       0.50000   0.86598   0.50000   0.0000000000
C          C       0.50000   0.78432   0.50000   0.0000000000
N          N       0.90495   0.50000   0.50000   0.0000000000
C          C       0.86598   0.50000   0.50000   0.0000000000
C          C       0.78432   0.50000   0.50000   0.0000000000
N          N       0.09505   0.50000   0.50000   0.0000000000
C          C       0.13402   0.50000   0.50000   0.0000000000
C          C       0.21568   0.50000   0.50000   0.0000000000
C          C       0.48053   0.96622   0.50000   0.0000000000
C          C       0.46982   0.07135   0.50000   0.0000000000
O          O       0.43576   0.07966   0.50000   0.0000000000
C          C       0.46632   0.15575   0.50000   0.0000000000
C          C       0.46604   0.19536   0.50000   0.0000000000
H          H       0.44060   0.14335   0.50000   0.0000000000
H          H       0.44077   0.20932   0.50000   0.0000000000
C          C       0.51947   0.03378   0.50000   0.0000000000
C          C       0.53018   0.92865   0.50000   0.0000000000
O          O       0.56424   0.92034   0.50000   0.0000000000
C          C       0.53369   0.84425   0.50000   0.0000000000
C          C       0.53396   0.80464   0.50000   0.0000000000
H          H       0.55940   0.85665   0.50000   0.0000000000
H          H       0.55923   0.79068   0.50000   0.0000000000
C          C       0.03378   0.48053   0.50000   0.0000000000
C          C       0.92865   0.46982   0.50000   0.0000000000
O          O       0.92034   0.43576   0.50000   0.0000000000
C          C       0.84425   0.46632   0.50000   0.0000000000
C          C       0.80464   0.46604   0.50000   0.0000000000
H          H       0.85665   0.44060   0.50000   0.0000000000
H          H       0.79068   0.44077   0.50000   0.0000000000
C          C       0.96622   0.51947   0.50000   0.0000000000
C          C       0.07135   0.53018   0.50000   0.0000000000
O          O       0.07966   0.56424   0.50000   0.0000000000
C          C       0.15575   0.53369   0.50000   0.0000000000
C          C       0.19536   0.53396   0.50000   0.0000000000
H          H       0.14335   0.55940   0.50000   0.0000000000
H          H       0.20932   0.55923   0.50000   0.0000000000
C          C       0.51947   0.96622   0.50000   0.0000000000
C          C       0.53018   0.07135   0.50000   0.0000000000
O          O       0.56424   0.07966   0.50000   0.0000000000
C          C       0.53369   0.15575   0.50000   0.0000000000
C          C       0.53396   0.19536   0.50000   0.0000000000
H          H       0.55940   0.14335   0.50000   0.0000000000
H          H       0.55923   0.20932   0.50000   0.0000000000
C          C       0.48053   0.03378   0.50000   0.0000000000
C          C       0.46982   0.92865   0.50000   0.0000000000
O          O       0.43576   0.92034   0.50000   0.0000000000
C          C       0.46632   0.84425   0.50000   0.0000000000
C          C       0.46604   0.80464   0.50000   0.0000000000
H          H       0.44060   0.85665   0.50000   0.0000000000
H          H       0.44077   0.79068   0.50000   0.0000000000
C          C       0.96622   0.48053   0.50000   0.0000000000
C          C       0.07135   0.46982   0.50000   0.0000000000
O          O       0.07966   0.43576   0.50000   0.0000000000
C          C       0.15575   0.46632   0.50000   0.0000000000
C          C       0.19536   0.46604   0.50000   0.0000000000
H          H       0.14335   0.44060   0.50000   0.0000000000
H          H       0.20932   0.44077   0.50000   0.0000000000
C          C       0.03378   0.51947   0.50000   0.0000000000
C          C       0.92865   0.53018   0.50000   0.0000000000
O          O       0.92034   0.56424   0.50000   0.0000000000
C          C       0.84425   0.53369   0.50000   0.0000000000
C          C       0.80464   0.53396   0.50000   0.0000000000
H          H       0.85665   0.55940   0.50000   0.0000000000
H          H       0.79068   0.55923   0.50000   0.0000000000
C          C       0.45961   0.00000   0.50000   0.0000000000
H          H       0.43075   0.00000   0.50000   0.0000000000
C          C       0.54039   0.00000   0.50000   0.0000000000
H          H       0.56925   0.00000   0.50000   0.0000000000
C          C       0.00000   0.45961   0.50000   0.0000000000
H          H       0.00000   0.43075   0.50000   0.0000000000
C          C       0.00000   0.54039   0.50000   0.0000000000
H          H       0.00000   0.56925   0.50000   0.0000000000
Cu         Cu      0.50000   0.50000   0.50000   0.0000000000
N          N       0.50000   0.55703   0.50000   0.0000000000
N          N       0.50000   0.44297   0.50000   0.0000000000
N          N       0.44297   0.50000   0.50000   0.0000000000
N          N       0.55703   0.50000   0.50000   0.0000000000
