data_DCuPc-APyrDI-COF
_audit_creation_date              0000-00-00
_audit_creation_method            'LanYouShi'
_symmetry_space_group_name_H-M    'P1'
_cell_length_a                    35.5555000
_cell_length_b                    35.5555000
_cell_length_c                    3.5346999
_cell_angle_alpha                 90.0000000
_cell_angle_beta                  90.0000000
_cell_angle_gamma                 90.0000000
loop_
_atom_site_label
_atom_site_type_symbol
_atom_site_fract_x
_atom_site_fract_y
_atom_site_fract_z
_atom_site_U_iso_or_equiv
_atom_site_adp_type
_atom_site_occupancy
        C1          C  0.4802513  0.6837453  0.4999974    0.00000       Uiso       1.00
        C2          C  0.5404349  0.6500573  0.4999974    0.00000       Uiso       1.00
        C3          C  0.5196572  0.6162257  0.4999974    0.00000       Uiso       1.00
        C4          C  0.5309771  0.5787615  0.4999974    0.00000       Uiso       1.00
        C1          C  0.5197498  0.3162557  0.4999974    0.00000       Uiso       1.00
        C2          C  0.4595661  0.3499438  0.4999974    0.00000       Uiso       1.00
        C3          C  0.4803438  0.3837753  0.4999974    0.00000       Uiso       1.00
        C4          C  0.4690240  0.4212395  0.4999974    0.00000       Uiso       1.00
        C1          C  0.3162557  0.4802513  0.4999974    0.00000       Uiso       1.00
        C2          C  0.3499438  0.5404349  0.4999974    0.00000       Uiso       1.00
        C3          C  0.3837753  0.5196572  0.4999974    0.00000       Uiso       1.00
        C4          C  0.4212395  0.5309771  0.4999974    0.00000       Uiso       1.00
        C1          C  0.6837453  0.5197498  0.4999974    0.00000       Uiso       1.00
        C2          C  0.6500573  0.4595661  0.4999974    0.00000       Uiso       1.00
        C3          C  0.6162257  0.4803438  0.4999974    0.00000       Uiso       1.00
        C4          C  0.5787615  0.4690240  0.4999974    0.00000       Uiso       1.00
        C1          C  0.5197498  0.6837453  0.4999974    0.00000       Uiso       1.00
        C2          C  0.4595661  0.6500573  0.4999974    0.00000       Uiso       1.00
        C3          C  0.4803438  0.6162257  0.4999974    0.00000       Uiso       1.00
        C4          C  0.4690240  0.5787615  0.4999974    0.00000       Uiso       1.00
        C1          C  0.4802513  0.3162557  0.4999974    0.00000       Uiso       1.00
        C2          C  0.5404349  0.3499438  0.4999974    0.00000       Uiso       1.00
        C3          C  0.5196572  0.3837753  0.4999974    0.00000       Uiso       1.00
        C4          C  0.5309771  0.4212395  0.4999974    0.00000       Uiso       1.00
        C1          C  0.6837453  0.4802513  0.4999974    0.00000       Uiso       1.00
        C2          C  0.6500573  0.5404349  0.4999974    0.00000       Uiso       1.00
        C3          C  0.6162257  0.5196572  0.4999974    0.00000       Uiso       1.00
        C4          C  0.5787615  0.5309771  0.4999974    0.00000       Uiso       1.00
        C1          C  0.3162557  0.5197498  0.4999974    0.00000       Uiso       1.00
        C2          C  0.3499438  0.4595661  0.4999974    0.00000       Uiso       1.00
        C3          C  0.3837753  0.4803438  0.4999974    0.00000       Uiso       1.00
        C4          C  0.4212395  0.4690240  0.4999974    0.00000       Uiso       1.00
        O1          O  0.5332142  0.7191260  0.4999974    0.00000       Uiso       1.00
        O1          O  0.4667868  0.2808750  0.4999974    0.00000       Uiso       1.00
        O1          O  0.2808750  0.5332142  0.4999974    0.00000       Uiso       1.00
        O1          O  0.7191260  0.4667868  0.4999974    0.00000       Uiso       1.00
        O1          O  0.4667868  0.7191260  0.4999974    0.00000       Uiso       1.00
        O1          O  0.5332142  0.2808750  0.4999974    0.00000       Uiso       1.00
        O1          O  0.7191260  0.5332142  0.4999974    0.00000       Uiso       1.00
        O1          O  0.2808750  0.4667868  0.4999974    0.00000       Uiso       1.00
        H1          H  0.5691443  0.6504976  0.4999974    0.00000       Uiso       1.00
        H1          H  0.4308567  0.3495034  0.4999974    0.00000       Uiso       1.00
        H1          H  0.3495034  0.5691443  0.4999974    0.00000       Uiso       1.00
        H1          H  0.6504976  0.4308567  0.4999974    0.00000       Uiso       1.00
        H1          H  0.4308567  0.6504976  0.4999974    0.00000       Uiso       1.00
        H1          H  0.5691443  0.3495034  0.4999974    0.00000       Uiso       1.00
        H1          H  0.6504976  0.5691443  0.4999974    0.00000       Uiso       1.00
        H1          H  0.3495034  0.4308567  0.4999974    0.00000       Uiso       1.00
        N1          N  0.5670021  0.5670021  0.4999974    0.00000       Uiso       1.00
        N1          N  0.4329989  0.4329989  0.4999974    0.00000       Uiso       1.00
        N1          N  0.4329989  0.5670021  0.4999974    0.00000       Uiso       1.00
        N1          N  0.5670021  0.4329989  0.4999974    0.00000       Uiso       1.00
        B1          B  0.5000005  0.7424141  0.4999974    0.00000       Uiso       1.00
        B2          B  0.5000005  0.2575870  0.4999974    0.00000       Uiso       1.00
        B3          B  0.2575870  0.5000005  0.4999974    0.00000       Uiso       1.00
        B4          B  0.7424141  0.5000005  0.4999974    0.00000       Uiso       1.00
        N1          N  0.5000005  0.0950504  0.4999974    0.00000       Uiso       1.00
        C1          C  0.5000005  0.1340219  0.4999974    0.00000       Uiso       1.00
        C2          C  0.5000005  0.2156822  0.4999974    0.00000       Uiso       1.00
        N2          N  0.5000005  0.9049506  0.4999974    0.00000       Uiso       1.00
        C3          C  0.5000005  0.8659791  0.4999974    0.00000       Uiso       1.00
        C4          C  0.5000005  0.7843188  0.4999974    0.00000       Uiso       1.00
        N3          N  0.9049506  0.5000005  0.4999974    0.00000       Uiso       1.00
        C5          C  0.8659791  0.5000005  0.4999974    0.00000       Uiso       1.00
        C6          C  0.7843188  0.5000005  0.4999974    0.00000       Uiso       1.00
        N4          N  0.0950504  0.5000005  0.4999974    0.00000       Uiso       1.00
        C7          C  0.1340219  0.5000005  0.4999974    0.00000       Uiso       1.00
        C8          C  0.2156822  0.5000005  0.4999974    0.00000       Uiso       1.00
        C9          C  0.4805270  0.9662214  0.4999974    0.00000       Uiso       1.00
       C10          C  0.4698202  0.0713485  0.4999974    0.00000       Uiso       1.00
        O1          O  0.4357591  0.0796563  0.4999974    0.00000       Uiso       1.00
       C11          C  0.4663151  0.1557530  0.4999974    0.00000       Uiso       1.00
       C12          C  0.4660427  0.1953641  0.4999974    0.00000       Uiso       1.00
        H1          H  0.4405983  0.1433475  0.4999974    0.00000       Uiso       1.00
        H2          H  0.4407682  0.2093185  0.4999974    0.00000       Uiso       1.00
       C13          C  0.5194740  0.0337796  0.4999974    0.00000       Uiso       1.00
       C14          C  0.5301808  0.9286525  0.4999974    0.00000       Uiso       1.00
        O2          O  0.5642419  0.9203447  0.4999974    0.00000       Uiso       1.00
       C15          C  0.5336859  0.8442481  0.4999974    0.00000       Uiso       1.00
       C16          C  0.5339583  0.8046369  0.4999974    0.00000       Uiso       1.00
        H3          H  0.5594028  0.8566535  0.4999974    0.00000       Uiso       1.00
        H4          H  0.5592329  0.7906825  0.4999974    0.00000       Uiso       1.00
       C17          C  0.0337796  0.4805270  0.4999974    0.00000       Uiso       1.00
       C18          C  0.9286525  0.4698202  0.4999974    0.00000       Uiso       1.00
        O3          O  0.9203447  0.4357591  0.4999974    0.00000       Uiso       1.00
       C19          C  0.8442481  0.4663151  0.4999974    0.00000       Uiso       1.00
       C20          C  0.8046369  0.4660427  0.4999974    0.00000       Uiso       1.00
        H5          H  0.8566535  0.4405983  0.4999974    0.00000       Uiso       1.00
        H6          H  0.7906825  0.4407682  0.4999974    0.00000       Uiso       1.00
       C21          C  0.9662214  0.5194740  0.4999974    0.00000       Uiso       1.00
       C22          C  0.0713485  0.5301808  0.4999974    0.00000       Uiso       1.00
        O4          O  0.0796563  0.5642419  0.4999974    0.00000       Uiso       1.00
       C23          C  0.1557530  0.5336859  0.4999974    0.00000       Uiso       1.00
       C24          C  0.1953641  0.5339583  0.4999974    0.00000       Uiso       1.00
        H7          H  0.1433475  0.5594028  0.4999974    0.00000       Uiso       1.00
        H8          H  0.2093185  0.5592329  0.4999974    0.00000       Uiso       1.00
       C25          C  0.5194740  0.9662214  0.4999974    0.00000       Uiso       1.00
       C26          C  0.5301808  0.0713485  0.4999974    0.00000       Uiso       1.00
        O5          O  0.5642419  0.0796563  0.4999974    0.00000       Uiso       1.00
       C27          C  0.5336859  0.1557530  0.4999974    0.00000       Uiso       1.00
       C28          C  0.5339583  0.1953641  0.4999974    0.00000       Uiso       1.00
        H9          H  0.5594028  0.1433475  0.4999974    0.00000       Uiso       1.00
       H10          H  0.5592329  0.2093185  0.4999974    0.00000       Uiso       1.00
       C29          C  0.4805270  0.0337796  0.4999974    0.00000       Uiso       1.00
       C30          C  0.4698202  0.9286525  0.4999974    0.00000       Uiso       1.00
        O6          O  0.4357591  0.9203447  0.4999974    0.00000       Uiso       1.00
       C31          C  0.4663151  0.8442481  0.4999974    0.00000       Uiso       1.00
       C32          C  0.4660427  0.8046369  0.4999974    0.00000       Uiso       1.00
       H11          H  0.4405983  0.8566535  0.4999974    0.00000       Uiso       1.00
       H12          H  0.4407682  0.7906825  0.4999974    0.00000       Uiso       1.00
       C33          C  0.9662214  0.4805270  0.4999974    0.00000       Uiso       1.00
       C34          C  0.0713485  0.4698202  0.4999974    0.00000       Uiso       1.00
        O7          O  0.0796563  0.4357591  0.4999974    0.00000       Uiso       1.00
       C35          C  0.1557530  0.4663151  0.4999974    0.00000       Uiso       1.00
       C36          C  0.1953641  0.4660427  0.4999974    0.00000       Uiso       1.00
       H13          H  0.1433475  0.4405983  0.4999974    0.00000       Uiso       1.00
       H14          H  0.2093185  0.4407682  0.4999974    0.00000       Uiso       1.00
       C37          C  0.0337796  0.5194740  0.4999974    0.00000       Uiso       1.00
       C38          C  0.9286525  0.5301808  0.4999974    0.00000       Uiso       1.00
        O8          O  0.9203447  0.5642419  0.4999974    0.00000       Uiso       1.00
       C39          C  0.8442481  0.5336859  0.4999974    0.00000       Uiso       1.00
       C40          C  0.8046369  0.5339583  0.4999974    0.00000       Uiso       1.00
       H15          H  0.8566535  0.5594028  0.4999974    0.00000       Uiso       1.00
       H16          H  0.7906825  0.5592329  0.4999974    0.00000       Uiso       1.00
       C41          C  0.4596116  0.0000000  0.4999974    0.00000       Uiso       1.00
       H17          H  0.4307524  0.0000000  0.4999974    0.00000       Uiso       1.00
       C42          C  0.5403895  0.0000000  0.4999974    0.00000       Uiso       1.00
       H18          H  0.5692486  0.0000000  0.4999974    0.00000       Uiso       1.00
       C43          C  0.0000000  0.4596116  0.4999974    0.00000       Uiso       1.00
       H19          H  0.0000000  0.4307524  0.4999974    0.00000       Uiso       1.00
       C44          C  0.0000000  0.5403895  0.4999974    0.00000       Uiso       1.00
       H20          H  0.0000000  0.5692486  0.4999974    0.00000       Uiso       1.00
       Cu1         Cu  0.5000005  0.5000005  0.4999974    0.00000       Uiso       1.00
        N5          N  0.5000005  0.5570322  0.4999974    0.00000       Uiso       1.00
        N5          N  0.5000005  0.4429688  0.4999974    0.00000       Uiso       1.00
        N5          N  0.4429688  0.5000005  0.4999974    0.00000       Uiso       1.00
        N5          N  0.5570322  0.5000005  0.4999974    0.00000       Uiso       1.00
