data_crystal
 
_cell_length_a    37.53870
_cell_length_b    37.53870
_cell_length_c    4.60000
_cell_angle_alpha 90.00000
_cell_angle_beta  90.00000
_cell_angle_gamma 120.00000
 
_symmetry_space_group_name_Hall 'P 1'
_symmetry_space_group_name_H-M  'P 1'
 
loop_
_symmetry_equiv_pos_as_xyz
 'x,y,z' 
 
loop_
_atom_site_label
_atom_site_type_symbol
_atom_site_fract_x
_atom_site_fract_y
_atom_site_fract_z
_atom_site_charge
C          C       0.48119   0.48264   0.50353   0.0000000000
C          C       0.44323   0.48398   0.51924   0.0000000000
C          C       0.41075   0.45921   0.33080   0.0000000000
C          C       0.37491   0.46025   0.34184   0.0000000000
C          C       0.37047   0.48528   0.55114   0.0000000000
C          C       0.40275   0.50970   0.74198   0.0000000000
C          C       0.43856   0.50869   0.72580   0.0000000000
H          H       0.46452   0.52740   0.87114   0.0000000000
C          C       0.47416   0.44090   0.49302   0.0000000000
C          C       0.43946   0.40955   0.63470   0.0000000000
C          C       0.42982   0.36929   0.61627   0.0000000000
C          C       0.45556   0.35952   0.45853   0.0000000000
C          C       0.49039   0.39044   0.31750   0.0000000000
C          C       0.49937   0.43040   0.33441   0.0000000000
N          N       0.33580   0.48817   0.56396   0.0000000000
C          C       0.30116   0.45788   0.48662   0.0000000000
C          C       0.26637   0.46321   0.45491   0.0000000000
C          C       0.22813   0.42995   0.38412   0.0000000000
C          C       0.27128   0.50193   0.50792   0.0000000000
N          N       0.44722   0.31976   0.44920   0.0000000000
C          C       0.47738   0.31362   0.48766   0.0000000000
C          C       0.47299   0.27394   0.45342   0.0000000000
C          C       0.50681   0.26916   0.50814   0.0000000000
C          C       0.43487   0.24045   0.38233   0.0000000000
H          H       0.41499   0.44006   0.16800   0.0000000000
H          H       0.35046   0.44322   0.18053   0.0000000000
H          H       0.39817   0.52852   0.90534   0.0000000000
H          H       0.41990   0.41757   0.76433   0.0000000000
H          H       0.40328   0.34503   0.73185   0.0000000000
H          H       0.50941   0.38198   0.18512   0.0000000000
H          H       0.52673   0.45440   0.22565   0.0000000000
H          H       0.29666   0.42693   0.43990   0.0000000000
H          H       0.22558   0.40035   0.33361   0.0000000000
H          H       0.30208   0.52654   0.56267   0.0000000000
H          H       0.50803   0.33908   0.55379   0.0000000000
H          H       0.53630   0.29614   0.56261   0.0000000000
H          H       0.40993   0.24639   0.33293   0.0000000000
C          C       0.51736   0.99855   0.50353   0.0000000000
C          C       0.51602   0.95925   0.51924   0.0000000000
C          C       0.54079   0.95154   0.33080   0.0000000000
C          C       0.53975   0.91466   0.34184   0.0000000000
C          C       0.51472   0.88519   0.55114   0.0000000000
C          C       0.49030   0.89305   0.74198   0.0000000000
C          C       0.49131   0.92987   0.72580   0.0000000000
H          H       0.47260   0.93712   0.87114   0.0000000000
C          C       0.55910   0.03326   0.49302   0.0000000000
C          C       0.59045   0.02991   0.63470   0.0000000000
C          C       0.63071   0.06053   0.61627   0.0000000000
C          C       0.64048   0.09604   0.45853   0.0000000000
C          C       0.60956   0.09995   0.31750   0.0000000000
C          C       0.56960   0.06897   0.33441   0.0000000000
N          N       0.51183   0.84763   0.56396   0.0000000000
C          C       0.54212   0.84328   0.48662   0.0000000000
C          C       0.53679   0.80316   0.45491   0.0000000000
C          C       0.57005   0.79818   0.38412   0.0000000000
C          C       0.49807   0.76935   0.50792   0.0000000000
N          N       0.68024   0.12746   0.44920   0.0000000000
C          C       0.68638   0.16376   0.48766   0.0000000000
C          C       0.72606   0.19905   0.45342   0.0000000000
C          C       0.73084   0.23765   0.50814   0.0000000000
C          C       0.75955   0.19442   0.38233   0.0000000000
H          H       0.55994   0.97493   0.16800   0.0000000000
H          H       0.55678   0.90724   0.18053   0.0000000000
H          H       0.47148   0.86965   0.90534   0.0000000000
H          H       0.58243   0.00233   0.76433   0.0000000000
H          H       0.65497   0.05825   0.73185   0.0000000000
H          H       0.61802   0.12743   0.18512   0.0000000000
H          H       0.54560   0.07233   0.22565   0.0000000000
H          H       0.57307   0.86973   0.43990   0.0000000000
H          H       0.59965   0.82523   0.33361   0.0000000000
H          H       0.47346   0.77554   0.56267   0.0000000000
H          H       0.66092   0.16895   0.55379   0.0000000000
H          H       0.70386   0.24016   0.56261   0.0000000000
H          H       0.75361   0.16354   0.33293   0.0000000000
C          C       0.00145   0.51881   0.50353   0.0000000000
C          C       0.04075   0.55677   0.51924   0.0000000000
C          C       0.04846   0.58925   0.33080   0.0000000000
C          C       0.08534   0.62509   0.34184   0.0000000000
C          C       0.11481   0.62953   0.55114   0.0000000000
C          C       0.10695   0.59725   0.74198   0.0000000000
C          C       0.07013   0.56144   0.72580   0.0000000000
H          H       0.06288   0.53548   0.87114   0.0000000000
C          C       0.96674   0.52584   0.49302   0.0000000000
C          C       0.97009   0.56054   0.63470   0.0000000000
C          C       0.93947   0.57018   0.61627   0.0000000000
C          C       0.90396   0.54444   0.45853   0.0000000000
C          C       0.90005   0.50961   0.31750   0.0000000000
C          C       0.93103   0.50063   0.33441   0.0000000000
N          N       0.15237   0.66420   0.56396   0.0000000000
C          C       0.15672   0.69884   0.48662   0.0000000000
C          C       0.19684   0.73363   0.45491   0.0000000000
C          C       0.20182   0.77187   0.38412   0.0000000000
C          C       0.23065   0.72872   0.50792   0.0000000000
N          N       0.87254   0.55278   0.44920   0.0000000000
C          C       0.83624   0.52262   0.48766   0.0000000000
C          C       0.80095   0.52701   0.45342   0.0000000000
C          C       0.76235   0.49319   0.50814   0.0000000000
C          C       0.80558   0.56513   0.38233   0.0000000000
H          H       0.02507   0.58501   0.16800   0.0000000000
H          H       0.09276   0.64954   0.18053   0.0000000000
H          H       0.13035   0.60183   0.90534   0.0000000000
H          H       0.99767   0.58010   0.76433   0.0000000000
H          H       0.94175   0.59672   0.73185   0.0000000000
H          H       0.87257   0.49059   0.18512   0.0000000000
H          H       0.92767   0.47327   0.22565   0.0000000000
H          H       0.13027   0.70334   0.43990   0.0000000000
H          H       0.17477   0.77442   0.33361   0.0000000000
H          H       0.22446   0.69792   0.56267   0.0000000000
H          H       0.83105   0.49197   0.55379   0.0000000000
H          H       0.75984   0.46370   0.56261   0.0000000000
H          H       0.83646   0.59007   0.33293   0.0000000000
C          C       0.51881   0.51736   0.50353   0.0000000000
C          C       0.55677   0.51602   0.51924   0.0000000000
C          C       0.58925   0.54079   0.33080   0.0000000000
C          C       0.62509   0.53975   0.34184   0.0000000000
C          C       0.62953   0.51472   0.55114   0.0000000000
C          C       0.59725   0.49030   0.74198   0.0000000000
C          C       0.56144   0.49131   0.72580   0.0000000000
H          H       0.53548   0.47260   0.87114   0.0000000000
C          C       0.52584   0.55910   0.49302   0.0000000000
C          C       0.56054   0.59045   0.63470   0.0000000000
C          C       0.57018   0.63071   0.61627   0.0000000000
C          C       0.54444   0.64048   0.45853   0.0000000000
C          C       0.50961   0.60956   0.31750   0.0000000000
C          C       0.50063   0.56960   0.33441   0.0000000000
N          N       0.66420   0.51183   0.56396   0.0000000000
C          C       0.69884   0.54212   0.48662   0.0000000000
C          C       0.73363   0.53679   0.45491   0.0000000000
C          C       0.77187   0.57005   0.38412   0.0000000000
C          C       0.72872   0.49807   0.50792   0.0000000000
N          N       0.55278   0.68024   0.44920   0.0000000000
C          C       0.52262   0.68638   0.48766   0.0000000000
C          C       0.52701   0.72606   0.45342   0.0000000000
C          C       0.49319   0.73084   0.50814   0.0000000000
C          C       0.56513   0.75955   0.38233   0.0000000000
H          H       0.58501   0.55994   0.16800   0.0000000000
H          H       0.64954   0.55678   0.18053   0.0000000000
H          H       0.60183   0.47148   0.90534   0.0000000000
H          H       0.58010   0.58243   0.76433   0.0000000000
H          H       0.59672   0.65497   0.73185   0.0000000000
H          H       0.49059   0.61802   0.18512   0.0000000000
H          H       0.47327   0.54560   0.22565   0.0000000000
H          H       0.70334   0.57307   0.43990   0.0000000000
H          H       0.77442   0.59965   0.33361   0.0000000000
H          H       0.69792   0.47346   0.56267   0.0000000000
H          H       0.49197   0.66092   0.55379   0.0000000000
H          H       0.46370   0.70386   0.56261   0.0000000000
H          H       0.59007   0.75361   0.33293   0.0000000000
C          C       0.48264   0.00145   0.50353   0.0000000000
C          C       0.48398   0.04075   0.51924   0.0000000000
C          C       0.45921   0.04846   0.33080   0.0000000000
C          C       0.46025   0.08534   0.34184   0.0000000000
C          C       0.48528   0.11481   0.55114   0.0000000000
C          C       0.50970   0.10695   0.74198   0.0000000000
C          C       0.50869   0.07013   0.72580   0.0000000000
H          H       0.52740   0.06288   0.87114   0.0000000000
C          C       0.44090   0.96674   0.49302   0.0000000000
C          C       0.40955   0.97009   0.63470   0.0000000000
C          C       0.36929   0.93947   0.61627   0.0000000000
C          C       0.35952   0.90396   0.45853   0.0000000000
C          C       0.39044   0.90005   0.31750   0.0000000000
C          C       0.43040   0.93103   0.33441   0.0000000000
N          N       0.48817   0.15237   0.56396   0.0000000000
C          C       0.45788   0.15672   0.48662   0.0000000000
C          C       0.46321   0.19684   0.45491   0.0000000000
C          C       0.42995   0.20182   0.38412   0.0000000000
C          C       0.50193   0.23065   0.50792   0.0000000000
N          N       0.31976   0.87254   0.44920   0.0000000000
C          C       0.31362   0.83624   0.48766   0.0000000000
C          C       0.27394   0.80095   0.45342   0.0000000000
C          C       0.26916   0.76235   0.50814   0.0000000000
C          C       0.24045   0.80558   0.38233   0.0000000000
H          H       0.44006   0.02507   0.16800   0.0000000000
H          H       0.44322   0.09276   0.18053   0.0000000000
H          H       0.52852   0.13035   0.90534   0.0000000000
H          H       0.41757   0.99767   0.76433   0.0000000000
H          H       0.34503   0.94175   0.73185   0.0000000000
H          H       0.38198   0.87257   0.18512   0.0000000000
H          H       0.45440   0.92767   0.22565   0.0000000000
H          H       0.42693   0.13027   0.43990   0.0000000000
H          H       0.40035   0.17477   0.33361   0.0000000000
H          H       0.52654   0.22446   0.56267   0.0000000000
H          H       0.33908   0.83105   0.55379   0.0000000000
H          H       0.29614   0.75984   0.56261   0.0000000000
H          H       0.24639   0.83646   0.33293   0.0000000000
C          C       0.99855   0.48119   0.50353   0.0000000000
C          C       0.95925   0.44323   0.51924   0.0000000000
C          C       0.95154   0.41075   0.33080   0.0000000000
C          C       0.91466   0.37491   0.34184   0.0000000000
C          C       0.88519   0.37047   0.55114   0.0000000000
C          C       0.89305   0.40275   0.74198   0.0000000000
C          C       0.92987   0.43856   0.72580   0.0000000000
H          H       0.93712   0.46452   0.87114   0.0000000000
C          C       0.03326   0.47416   0.49302   0.0000000000
C          C       0.02991   0.43946   0.63470   0.0000000000
C          C       0.06053   0.42982   0.61627   0.0000000000
C          C       0.09604   0.45556   0.45853   0.0000000000
C          C       0.09995   0.49039   0.31750   0.0000000000
C          C       0.06897   0.49937   0.33441   0.0000000000
N          N       0.84763   0.33580   0.56396   0.0000000000
C          C       0.84328   0.30116   0.48662   0.0000000000
C          C       0.80316   0.26637   0.45491   0.0000000000
C          C       0.79818   0.22813   0.38412   0.0000000000
C          C       0.76935   0.27128   0.50792   0.0000000000
N          N       0.12746   0.44722   0.44920   0.0000000000
C          C       0.16376   0.47738   0.48766   0.0000000000
C          C       0.19905   0.47299   0.45342   0.0000000000
C          C       0.23765   0.50681   0.50814   0.0000000000
C          C       0.19442   0.43487   0.38233   0.0000000000
H          H       0.97493   0.41499   0.16800   0.0000000000
H          H       0.90724   0.35046   0.18053   0.0000000000
H          H       0.86965   0.39817   0.90534   0.0000000000
H          H       0.00233   0.41990   0.76433   0.0000000000
H          H       0.05825   0.40328   0.73185   0.0000000000
H          H       0.12743   0.50941   0.18512   0.0000000000
H          H       0.07233   0.52673   0.22565   0.0000000000
H          H       0.86973   0.29666   0.43990   0.0000000000
H          H       0.82523   0.22558   0.33361   0.0000000000
H          H       0.77554   0.30208   0.56267   0.0000000000
H          H       0.16895   0.50803   0.55379   0.0000000000
H          H       0.24016   0.53630   0.56261   0.0000000000
H          H       0.16354   0.40993   0.33293   0.0000000000
