data_crystal
 
_cell_length_a    37.83430
_cell_length_b    37.83430
_cell_length_c    3.40000
_cell_angle_alpha 90.00000
_cell_angle_beta  90.00000
_cell_angle_gamma 120.00000
 
_symmetry_space_group_name_Hall 'P 1'
_symmetry_space_group_name_H-M  'P 1'
 
loop_
_symmetry_equiv_pos_as_xyz
 'x,y,z' 
 
loop_
_atom_site_label
_atom_site_type_symbol
_atom_site_fract_x
_atom_site_fract_y
_atom_site_fract_z
_atom_site_charge
N          N       0.44324   0.55144   0.50000   0.0000000000
N          N       0.44856   0.89180   0.50000   0.0000000000
N          N       0.10820   0.55676   0.50000   0.0000000000
N          N       0.55144   0.44324   0.50000   0.0000000000
N          N       0.89180   0.44856   0.50000   0.0000000000
N          N       0.55676   0.10820   0.50000   0.0000000000
C          C       0.42790   0.51263   0.50000   0.0000000000
C          C       0.48737   0.91527   0.50000   0.0000000000
C          C       0.08473   0.57210   0.50000   0.0000000000
C          C       0.51263   0.42790   0.50000   0.0000000000
C          C       0.91527   0.48737   0.50000   0.0000000000
C          C       0.57210   0.08473   0.50000   0.0000000000
C          C       0.44931   0.49122   0.50000   0.0000000000
C          C       0.50878   0.95809   0.50000   0.0000000000
C          C       0.04191   0.55069   0.50000   0.0000000000
C          C       0.49122   0.44931   0.50000   0.0000000000
C          C       0.95809   0.50878   0.50000   0.0000000000
C          C       0.55069   0.04191   0.50000   0.0000000000
C          C       0.42783   0.44878   0.50000   0.0000000000
C          C       0.55122   0.97905   0.50000   0.0000000000
C          C       0.02095   0.57217   0.50000   0.0000000000
C          C       0.44878   0.42783   0.50000   0.0000000000
C          C       0.97905   0.55122   0.50000   0.0000000000
C          C       0.57217   0.02095   0.50000   0.0000000000
H          H       0.39304   0.43159   0.50000   0.0000000000
H          H       0.56841   0.96145   0.50000   0.0000000000
H          H       0.03855   0.60696   0.50000   0.0000000000
H          H       0.43159   0.39304   0.50000   0.0000000000
H          H       0.96145   0.56841   0.50000   0.0000000000
H          H       0.60696   0.03855   0.50000   0.0000000000
C          C       0.51269   0.49175   0.50000   0.0000000000
C          C       0.50825   0.02095   0.50000   0.0000000000
C          C       0.97905   0.48731   0.50000   0.0000000000
C          C       0.49175   0.51269   0.50000   0.0000000000
C          C       0.02095   0.50825   0.50000   0.0000000000
C          C       0.48731   0.97905   0.50000   0.0000000000
O          O       0.54549   0.50879   0.50000   0.0000000000
O          O       0.49121   0.03670   0.50000   0.0000000000
O          O       0.96330   0.45451   0.50000   0.0000000000
O          O       0.50879   0.54549   0.50000   0.0000000000
O          O       0.03670   0.49121   0.50000   0.0000000000
O          O       0.45451   0.96330   0.50000   0.0000000000
C          C       0.55383   0.37502   0.50000   0.0000000000
C          C       0.62498   0.17881   0.50000   0.0000000000
C          C       0.82119   0.44617   0.50000   0.0000000000
C          C       0.37502   0.55383   0.50000   0.0000000000
C          C       0.17881   0.62498   0.50000   0.0000000000
C          C       0.44617   0.82119   0.50000   0.0000000000
C          C       0.57516   0.35395   0.50000   0.0000000000
C          C       0.64605   0.22121   0.50000   0.0000000000
C          C       0.77878   0.42484   0.50000   0.0000000000
C          C       0.35395   0.57516   0.50000   0.0000000000
C          C       0.22121   0.64605   0.50000   0.0000000000
C          C       0.42484   0.77878   0.50000   0.0000000000
H          H       0.51904   0.35752   0.50000   0.0000000000
H          H       0.64248   0.16152   0.50000   0.0000000000
H          H       0.83848   0.48096   0.50000   0.0000000000
H          H       0.35752   0.51904   0.50000   0.0000000000
H          H       0.16152   0.64248   0.50000   0.0000000000
H          H       0.48096   0.83848   0.50000   0.0000000000
H          H       0.55787   0.31915   0.50000   0.0000000000
H          H       0.68084   0.23871   0.50000   0.0000000000
H          H       0.76129   0.44213   0.50000   0.0000000000
H          H       0.31915   0.55787   0.50000   0.0000000000
H          H       0.23871   0.68084   0.50000   0.0000000000
H          H       0.44213   0.76129   0.50000   0.0000000000
C          C       0.55697   0.17775   0.50000   0.0000000000
C          C       0.82225   0.37922   0.50000   0.0000000000
C          C       0.62078   0.44303   0.50000   0.0000000000
C          C       0.17775   0.55697   0.50000   0.0000000000
C          C       0.37922   0.82225   0.50000   0.0000000000
C          C       0.44303   0.62078   0.50000   0.0000000000
C          C       0.57729   0.22014   0.50000   0.0000000000
C          C       0.77986   0.35715   0.50000   0.0000000000
C          C       0.64285   0.42271   0.50000   0.0000000000
C          C       0.22014   0.57729   0.50000   0.0000000000
C          C       0.35715   0.77986   0.50000   0.0000000000
C          C       0.42271   0.64285   0.50000   0.0000000000
H          H       0.52218   0.15996   0.50000   0.0000000000
H          H       0.84004   0.36222   0.50000   0.0000000000
H          H       0.63778   0.47782   0.50000   0.0000000000
H          H       0.15996   0.52218   0.50000   0.0000000000
H          H       0.36222   0.84004   0.50000   0.0000000000
H          H       0.47782   0.63778   0.50000   0.0000000000
H          H       0.55918   0.23681   0.50000   0.0000000000
H          H       0.76319   0.32237   0.50000   0.0000000000
H          H       0.67763   0.44082   0.50000   0.0000000000
H          H       0.23681   0.55918   0.50000   0.0000000000
H          H       0.32237   0.76319   0.50000   0.0000000000
H          H       0.44082   0.67763   0.50000   0.0000000000
C          C       0.64570   0.29038   0.50000   0.0000000000
C          C       0.70962   0.35532   0.50000   0.0000000000
C          C       0.64468   0.35430   0.50000   0.0000000000
C          C       0.29038   0.64570   0.50000   0.0000000000
C          C       0.35532   0.70962   0.50000   0.0000000000
C          C       0.35430   0.64468   0.50000   0.0000000000
C          C       0.57998   0.15576   0.50000   0.0000000000
C          C       0.84424   0.42422   0.50000   0.0000000000
C          C       0.57578   0.42002   0.50000   0.0000000000
C          C       0.15576   0.57998   0.50000   0.0000000000
C          C       0.42422   0.84424   0.50000   0.0000000000
C          C       0.42002   0.57578   0.50000   0.0000000000
C          C       0.62324   0.24437   0.50000   0.0000000000
C          C       0.75563   0.37887   0.50000   0.0000000000
C          C       0.62113   0.37676   0.50000   0.0000000000
C          C       0.24437   0.62324   0.50000   0.0000000000
C          C       0.37887   0.75563   0.50000   0.0000000000
C          C       0.37676   0.62113   0.50000   0.0000000000
C          C       0.68841   0.31260   0.50000   0.0000000000
C          C       0.68740   0.37581   0.50000   0.0000000000
C          C       0.62419   0.31159   0.50000   0.0000000000
C          C       0.31260   0.68841   0.50000   0.0000000000
C          C       0.37581   0.68740   0.50000   0.0000000000
C          C       0.31159   0.62419   0.50000   0.0000000000
H          H       0.58940   0.29350   0.50000   0.0000000000
H          H       0.70650   0.29590   0.50000   0.0000000000
H          H       0.70410   0.41060   0.50000   0.0000000000
H          H       0.29350   0.58940   0.50000   0.0000000000
H          H       0.29590   0.70650   0.50000   0.0000000000
H          H       0.41060   0.70410   0.50000   0.0000000000
H          H       0.56309   0.49253   0.50000   0.0000000000
H          H       0.50747   0.07056   0.50000   0.0000000000
H          H       0.92944   0.43691   0.50000   0.0000000000
H          H       0.49253   0.56309   0.50000   0.0000000000
H          H       0.07056   0.50747   0.50000   0.0000000000
H          H       0.43691   0.92944   0.50000   0.0000000000
H          H       0.39336   0.49173   0.50000   0.0000000000
H          H       0.50827   0.90162   0.50000   0.0000000000
H          H       0.09838   0.60664   0.50000   0.0000000000
H          H       0.49173   0.39336   0.50000   0.0000000000
H          H       0.90162   0.50827   0.50000   0.0000000000
H          H       0.60664   0.09838   0.50000   0.0000000000
