data_crystal
 
_cell_length_a    37.93790
_cell_length_b    37.93790
_cell_length_c    3.47930
_cell_angle_alpha 90.00000
_cell_angle_beta  90.00000
_cell_angle_gamma 120.00000
 
_symmetry_space_group_name_Hall 'P 1'
_symmetry_space_group_name_H-M  'P 1'
 
loop_
_symmetry_equiv_pos_as_xyz
 'x,y,z' 
 
loop_
_atom_site_label
_atom_site_type_symbol
_atom_site_fract_x
_atom_site_fract_y
_atom_site_fract_z
_atom_site_charge
N          N       0.88734   0.45095   0.50000   0.0000000000
N          N       0.11267   0.54873   0.50000   0.0000000000
N          N       0.54905   0.43639   0.50000   0.0000000000
N          N       0.45127   0.56394   0.50000   0.0000000000
N          N       0.56361   0.11266   0.50000   0.0000000000
N          N       0.43606   0.88733   0.50000   0.0000000000
C          C       0.91395   0.43888   0.50000   0.0000000000
C          C       0.56112   0.47507   0.50000   0.0000000000
C          C       0.52493   0.08605   0.50000   0.0000000000
C          C       0.95816   0.46930   0.50000   0.0000000000
C          C       0.04181   0.53032   0.50000   0.0000000000
C          C       0.53070   0.48887   0.50000   0.0000000000
C          C       0.46968   0.51148   0.50000   0.0000000000
C          C       0.51113   0.04183   0.50000   0.0000000000
C          C       0.48852   0.95819   0.50000   0.0000000000
C          C       0.98887   0.45835   0.50000   0.0000000000
C          C       0.02968   0.48867   0.50000   0.0000000000
C          C       0.54165   0.53052   0.50000   0.0000000000
C          C       0.51133   0.54100   0.50000   0.0000000000
C          C       0.46948   0.01113   0.50000   0.0000000000
C          C       0.45900   0.97032   0.50000   0.0000000000
O          O       0.98134   0.41833   0.50000   0.0000000000
H          H       0.05199   0.47886   0.50000   0.0000000000
O          O       0.58167   0.56301   0.50000   0.0000000000
H          H       0.52114   0.57313   0.50000   0.0000000000
O          O       0.43699   0.01866   0.50000   0.0000000000
H          H       0.42687   0.94801   0.50000   0.0000000000
C          C       0.01109   0.54126   0.50000   0.0000000000
C          C       0.97029   0.51094   0.50000   0.0000000000
C          C       0.45874   0.46983   0.50000   0.0000000000
C          C       0.48906   0.45935   0.50000   0.0000000000
C          C       0.53017   0.98891   0.50000   0.0000000000
C          C       0.54065   0.02971   0.50000   0.0000000000
O          O       0.01860   0.58126   0.50000   0.0000000000
H          H       0.94799   0.52076   0.50000   0.0000000000
O          O       0.41873   0.43733   0.50000   0.0000000000
H          H       0.47924   0.42722   0.50000   0.0000000000
O          O       0.56267   0.98140   0.50000   0.0000000000
H          H       0.57278   0.05201   0.50000   0.0000000000
C          C       0.17904   0.55407   0.50000   0.0000000000
C          C       0.82307   0.38347   0.50000   0.0000000000
C          C       0.44593   0.62497   0.50000   0.0000000000
C          C       0.61653   0.43960   0.50000   0.0000000000
C          C       0.37503   0.82096   0.50000   0.0000000000
C          C       0.56040   0.17693   0.50000   0.0000000000
C          C       0.22157   0.57620   0.50000   0.0000000000
C          C       0.78051   0.36111   0.50000   0.0000000000
C          C       0.42379   0.64537   0.50000   0.0000000000
C          C       0.63889   0.41939   0.50000   0.0000000000
C          C       0.35463   0.77843   0.50000   0.0000000000
C          C       0.58060   0.21949   0.50000   0.0000000000
H          H       0.16337   0.52114   0.50000   0.0000000000
H          H       0.83926   0.36686   0.50000   0.0000000000
H          H       0.47886   0.64223   0.50000   0.0000000000
H          H       0.63314   0.47240   0.50000   0.0000000000
H          H       0.35777   0.83663   0.50000   0.0000000000
H          H       0.52760   0.16074   0.50000   0.0000000000
H          H       0.23613   0.55815   0.50000   0.0000000000
H          H       0.76753   0.32865   0.50000   0.0000000000
H          H       0.44185   0.67799   0.50000   0.0000000000
H          H       0.67135   0.43888   0.50000   0.0000000000
H          H       0.32201   0.76387   0.50000   0.0000000000
H          H       0.56112   0.23247   0.50000   0.0000000000
C          C       0.38374   0.56061   0.50000   0.0000000000
C          C       0.62470   0.17897   0.50000   0.0000000000
C          C       0.43939   0.82313   0.50000   0.0000000000
C          C       0.82103   0.44573   0.50000   0.0000000000
C          C       0.17687   0.61626   0.50000   0.0000000000
C          C       0.55427   0.37530   0.50000   0.0000000000
C          C       0.36131   0.58075   0.50000   0.0000000000
C          C       0.64517   0.22150   0.50000   0.0000000000
C          C       0.41925   0.78056   0.50000   0.0000000000
C          C       0.77849   0.42366   0.50000   0.0000000000
C          C       0.21944   0.63869   0.50000   0.0000000000
C          C       0.57634   0.35483   0.50000   0.0000000000
H          H       0.36718   0.52781   0.50000   0.0000000000
H          H       0.64189   0.16323   0.50000   0.0000000000
H          H       0.47219   0.83937   0.50000   0.0000000000
H          H       0.83677   0.47866   0.50000   0.0000000000
H          H       0.16063   0.63282   0.50000   0.0000000000
H          H       0.52134   0.35811   0.50000   0.0000000000
H          H       0.32885   0.56121   0.50000   0.0000000000
H          H       0.67778   0.23601   0.50000   0.0000000000
H          H       0.43879   0.76764   0.50000   0.0000000000
H          H       0.76399   0.44177   0.50000   0.0000000000
H          H       0.23236   0.67115   0.50000   0.0000000000
H          H       0.55823   0.32222   0.50000   0.0000000000
C          C       0.35619   0.64597   0.50000   0.0000000000
C          C       0.64590   0.28978   0.50000   0.0000000000
C          C       0.35403   0.71022   0.50000   0.0000000000
C          C       0.71022   0.35613   0.50000   0.0000000000
C          C       0.28978   0.64381   0.50000   0.0000000000
C          C       0.64387   0.35410   0.50000   0.0000000000
C          C       0.42639   0.58268   0.50000   0.0000000000
C          C       0.58242   0.15630   0.50000   0.0000000000
C          C       0.41732   0.84370   0.50000   0.0000000000
C          C       0.84370   0.42612   0.50000   0.0000000000
C          C       0.15630   0.57361   0.50000   0.0000000000
C          C       0.57388   0.41758   0.50000   0.0000000000
C          C       0.38058   0.62389   0.50000   0.0000000000
C          C       0.62376   0.24331   0.50000   0.0000000000
C          C       0.37611   0.75669   0.50000   0.0000000000
C          C       0.75669   0.38045   0.50000   0.0000000000
C          C       0.24331   0.61942   0.50000   0.0000000000
C          C       0.61955   0.37624   0.50000   0.0000000000
C          C       0.37561   0.68885   0.50000   0.0000000000
C          C       0.62439   0.31121   0.50000   0.0000000000
C          C       0.31115   0.68676   0.50000   0.0000000000
C          C       0.68879   0.31318   0.50000   0.0000000000
C          C       0.31324   0.62439   0.50000   0.0000000000
C          C       0.68682   0.37561   0.50000   0.0000000000
H          H       0.29794   0.59220   0.50000   0.0000000000
H          H       0.70563   0.29783   0.50000   0.0000000000
H          H       0.40780   0.70574   0.50000   0.0000000000
H          H       0.70217   0.40780   0.50000   0.0000000000
H          H       0.29426   0.70206   0.50000   0.0000000000
H          H       0.59220   0.29437   0.50000   0.0000000000
H          H       0.04782   0.60372   0.50000   0.0000000000
H          H       0.39628   0.44410   0.50000   0.0000000000
H          H       0.55590   0.95218   0.50000   0.0000000000
C          C       0.47474   0.91398   0.50000   0.0000000000
H          H       0.90384   0.40695   0.50000   0.0000000000
H          H       0.95213   0.39587   0.50000   0.0000000000
H          H       0.40732   0.50342   0.50000   0.0000000000
C          C       0.08602   0.56076   0.50000   0.0000000000
H          H       0.59305   0.49689   0.50000   0.0000000000
H          H       0.60413   0.55626   0.50000   0.0000000000
H          H       0.49658   0.90390   0.50000   0.0000000000
C          C       0.43924   0.52526   0.50000   0.0000000000
H          H       0.50311   0.09616   0.50000   0.0000000000
H          H       0.44373   0.04787   0.50000   0.0000000000
H          H       0.09610   0.59268   0.50000   0.0000000000
