data_DhaTab-25
_audit_creation_date              0000-00-00
_audit_creation_method            'LanYouShi'
_symmetry_space_group_name_H-M    'P1'
_cell_length_a                    37.9379005
_cell_length_b                    37.9379005
_cell_length_c                    3.4793000
_cell_angle_alpha                 90.0000000
_cell_angle_beta                  90.0000000
_cell_angle_gamma                 120.0000000
loop_
_atom_site_label
_atom_site_type_symbol
_atom_site_fract_x
_atom_site_fract_y
_atom_site_fract_z
_atom_site_U_iso_or_equiv
_atom_site_adp_type
_atom_site_occupancy
        N1          N  0.8873388  0.4509499  0.5000020    0.00000       Uiso       1.00
        N2          N  0.1126677  0.5487306  0.5000020    0.00000       Uiso       1.00
        N3          N  0.5490497  0.4363889  0.5000020    0.00000       Uiso       1.00
        N4          N  0.4512691  0.5639367  0.5000020    0.00000       Uiso       1.00
        N5          N  0.5636107  0.1126608  0.5000020    0.00000       Uiso       1.00
        N6          N  0.4360629  0.8873320  0.5000020    0.00000       Uiso       1.00
        C1          C  0.9139542  0.4388808  0.5000020    0.00000       Uiso       1.00
        C2          C  0.5611188  0.4750735  0.5000020    0.00000       Uiso       1.00
        C3          C  0.5249262  0.0860454  0.5000020    0.00000       Uiso       1.00
        C4          C  0.9581649  0.4692965  0.5000020    0.00000       Uiso       1.00
        C5          C  0.0418050  0.5303205  0.5000020    0.00000       Uiso       1.00
        C6          C  0.5307031  0.4888684  0.5000020    0.00000       Uiso       1.00
        C7          C  0.4696792  0.5114841  0.5000020    0.00000       Uiso       1.00
        C8          C  0.5111313  0.0418347  0.5000020    0.00000       Uiso       1.00
        C9          C  0.4885155  0.9581946  0.5000020    0.00000       Uiso       1.00
       C10          C  0.9888710  0.4583470  0.5000020    0.00000       Uiso       1.00
       C11          C  0.0296781  0.4886740  0.5000020    0.00000       Uiso       1.00
       C12          C  0.5416526  0.5305240  0.5000020    0.00000       Uiso       1.00
       C13          C  0.5113256  0.5410037  0.5000020    0.00000       Uiso       1.00
       C14          C  0.4694756  0.0111286  0.5000020    0.00000       Uiso       1.00
       C15          C  0.4589959  0.9703215  0.5000020    0.00000       Uiso       1.00
        O1          O  0.9813375  0.4183300  0.5000020    0.00000       Uiso       1.00
        H1          H  0.0519885  0.4788591  0.5000020    0.00000       Uiso       1.00
        O2          O  0.5816696  0.5630075  0.5000020    0.00000       Uiso       1.00
        H2          H  0.5211405  0.5731290  0.5000020    0.00000       Uiso       1.00
        O3          O  0.4369921  0.0186621  0.5000020    0.00000       Uiso       1.00
        H3          H  0.4268706  0.9480111  0.5000020    0.00000       Uiso       1.00
       C16          C  0.0110909  0.5412630  0.5000020    0.00000       Uiso       1.00
       C17          C  0.9702913  0.5109385  0.5000020    0.00000       Uiso       1.00
       C18          C  0.4587366  0.4698275  0.5000020    0.00000       Uiso       1.00
       C19          C  0.4890611  0.4593529  0.5000020    0.00000       Uiso       1.00
       C20          C  0.5301722  0.9889087  0.5000020    0.00000       Uiso       1.00
       C21          C  0.5406467  0.0297083  0.5000020    0.00000       Uiso       1.00
        O4          O  0.0185991  0.5812647  0.5000020    0.00000       Uiso       1.00
        H4          H  0.9479874  0.5207643  0.5000020    0.00000       Uiso       1.00
        O5          O  0.4187349  0.4373340  0.5000020    0.00000       Uiso       1.00
        H5          H  0.4792354  0.4272231  0.5000020    0.00000       Uiso       1.00
        O6          O  0.5626657  0.9814006  0.5000020    0.00000       Uiso       1.00
        H6          H  0.5727765  0.0520123  0.5000020    0.00000       Uiso       1.00
       C22          C  0.1790413  0.5540693  0.5000020    0.00000       Uiso       1.00
       C23          C  0.8230698  0.3834716  0.5000020    0.00000       Uiso       1.00
       C24          C  0.4459303  0.6249716  0.5000020    0.00000       Uiso       1.00
       C25          C  0.6165280  0.4395983  0.5000020    0.00000       Uiso       1.00
       C26          C  0.3750279  0.8209583  0.5000020    0.00000       Uiso       1.00
       C27          C  0.5604013  0.1769298  0.5000020    0.00000       Uiso       1.00
       C28          C  0.2215717  0.5762048  0.5000020    0.00000       Uiso       1.00
       C29          C  0.7805070  0.3611121  0.5000020    0.00000       Uiso       1.00
       C30          C  0.4237949  0.6453666  0.5000020    0.00000       Uiso       1.00
       C31          C  0.6388875  0.4193949  0.5000020    0.00000       Uiso       1.00
       C32          C  0.3546330  0.7784279  0.5000020    0.00000       Uiso       1.00
       C33          C  0.5806047  0.2194926  0.5000020    0.00000       Uiso       1.00
        H7          H  0.1633733  0.5211397  0.5000020    0.00000       Uiso       1.00
        H8          H  0.8392572  0.3668593  0.5000020    0.00000       Uiso       1.00
        H9          H  0.4788599  0.6422332  0.5000020    0.00000       Uiso       1.00
       H10          H  0.6331403  0.4723979  0.5000020    0.00000       Uiso       1.00
       H11          H  0.3577664  0.8366264  0.5000020    0.00000       Uiso       1.00
       H12          H  0.5276017  0.1607424  0.5000020    0.00000       Uiso       1.00
       H13          H  0.2361335  0.5581459  0.5000020    0.00000       Uiso       1.00
       H14          H  0.7675286  0.3286450  0.5000020    0.00000       Uiso       1.00
       H15          H  0.4418538  0.6779873  0.5000020    0.00000       Uiso       1.00
       H16          H  0.6713546  0.4388836  0.5000020    0.00000       Uiso       1.00
       H17          H  0.3220123  0.7638661  0.5000020    0.00000       Uiso       1.00
       H18          H  0.5611160  0.2324710  0.5000020    0.00000       Uiso       1.00
       C34          C  0.3837369  0.5606109  0.5000020    0.00000       Uiso       1.00
       C35          C  0.6247016  0.1789727  0.5000020    0.00000       Uiso       1.00
       C36          C  0.4393887  0.8231255  0.5000020    0.00000       Uiso       1.00
       C37          C  0.8210270  0.4457289  0.5000020    0.00000       Uiso       1.00
       C38          C  0.1768740  0.6162627  0.5000020    0.00000       Uiso       1.00
       C39          C  0.5542708  0.3752981  0.5000020    0.00000       Uiso       1.00
       C40          C  0.3613112  0.5807464  0.5000020    0.00000       Uiso       1.00
       C41          C  0.6451666  0.2215048  0.5000020    0.00000       Uiso       1.00
       C42          C  0.4192532  0.7805644  0.5000020    0.00000       Uiso       1.00
       C43          C  0.7784949  0.4236618  0.5000020    0.00000       Uiso       1.00
       C44          C  0.2194351  0.6386883  0.5000020    0.00000       Uiso       1.00
       C45          C  0.5763378  0.3548330  0.5000020    0.00000       Uiso       1.00
       H19          H  0.3671836  0.5278102  0.5000020    0.00000       Uiso       1.00
       H20          H  0.6418877  0.1632300  0.5000020    0.00000       Uiso       1.00
       H21          H  0.4721894  0.8393730  0.5000020    0.00000       Uiso       1.00
       H22          H  0.8367695  0.4786576  0.5000020    0.00000       Uiso       1.00
       H23          H  0.1606266  0.6328160  0.5000020    0.00000       Uiso       1.00
       H24          H  0.5213420  0.3581119  0.5000020    0.00000       Uiso       1.00
       H25          H  0.3288494  0.5612121  0.5000020    0.00000       Uiso       1.00
       H26          H  0.6777823  0.2360135  0.5000020    0.00000       Uiso       1.00
       H27          H  0.4387875  0.7676370  0.5000020    0.00000       Uiso       1.00
       H28          H  0.7639861  0.4417688  0.5000020    0.00000       Uiso       1.00
       H29          H  0.2323627  0.6711502  0.5000020    0.00000       Uiso       1.00
       H30          H  0.5582308  0.3222173  0.5000020    0.00000       Uiso       1.00
       C46          C  0.3561898  0.6459699  0.5000020    0.00000       Uiso       1.00
       C47          C  0.6459039  0.2897781  0.5000020    0.00000       Uiso       1.00
       C48          C  0.3540297  0.7102194  0.5000020    0.00000       Uiso       1.00
       C49          C  0.7102215  0.3561257  0.5000020    0.00000       Uiso       1.00
       C50          C  0.2897801  0.6438098  0.5000020    0.00000       Uiso       1.00
       C51          C  0.6438739  0.3540957  0.5000020    0.00000       Uiso       1.00
       C52          C  0.4263856  0.5826842  0.5000020    0.00000       Uiso       1.00
       C53          C  0.5824168  0.1562964  0.5000020    0.00000       Uiso       1.00
       C54          C  0.4173155  0.8437011  0.5000020    0.00000       Uiso       1.00
       C55          C  0.8437032  0.4261204  0.5000020    0.00000       Uiso       1.00
       C56          C  0.1562986  0.5736140  0.5000020    0.00000       Uiso       1.00
       C57          C  0.5738792  0.4175828  0.5000020    0.00000       Uiso       1.00
       C58          C  0.3805822  0.6238937  0.5000020    0.00000       Uiso       1.00
       C59          C  0.6237575  0.2433077  0.5000020    0.00000       Uiso       1.00
       C60          C  0.3761059  0.7566881  0.5000020    0.00000       Uiso       1.00
       C61          C  0.7566919  0.3804498  0.5000020    0.00000       Uiso       1.00
       C62          C  0.2433115  0.6194174  0.5000020    0.00000       Uiso       1.00
       C63          C  0.6195498  0.3762421  0.5000020    0.00000       Uiso       1.00
       C64          C  0.3756078  0.6888520  0.5000020    0.00000       Uiso       1.00
       C65          C  0.6243898  0.3112096  0.5000020    0.00000       Uiso       1.00
       C66          C  0.3111476  0.6867554  0.5000020    0.00000       Uiso       1.00
       C67          C  0.6887900  0.3131802  0.5000020    0.00000       Uiso       1.00
       C68          C  0.3132443  0.6243919  0.5000020    0.00000       Uiso       1.00
       C69          C  0.6868194  0.3756098  0.5000020    0.00000       Uiso       1.00
       H31          H  0.2979431  0.5922025  0.5000020    0.00000       Uiso       1.00
       H32          H  0.7056313  0.2978308  0.5000020    0.00000       Uiso       1.00
       H33          H  0.4077971  0.7057402  0.5000020    0.00000       Uiso       1.00
       H34          H  0.7021688  0.4078005  0.5000020    0.00000       Uiso       1.00
       H35          H  0.2942595  0.7020565  0.5000020    0.00000       Uiso       1.00
       H36          H  0.5921991  0.2943683  0.5000020    0.00000       Uiso       1.00
       H37          H  0.0478188  0.6037169  0.5000020    0.00000       Uiso       1.00
       H38          H  0.3962827  0.4441015  0.5000020    0.00000       Uiso       1.00
       H39          H  0.5558981  0.9521809  0.5000020    0.00000       Uiso       1.00
       C70          C  0.4747398  0.9139832  0.5000020    0.00000       Uiso       1.00
       H40          H  0.9038444  0.4069537  0.5000020    0.00000       Uiso       1.00
       H41          H  0.9521311  0.3958665  0.5000020    0.00000       Uiso       1.00
       H42          H  0.4073239  0.5034223  0.5000020    0.00000       Uiso       1.00
       C71          C  0.0860164  0.5607561  0.5000020    0.00000       Uiso       1.00
       H43          H  0.5930459  0.4968906  0.5000020    0.00000       Uiso       1.00
       H44          H  0.6041331  0.5562646  0.5000020    0.00000       Uiso       1.00
       H45          H  0.4965774  0.9039013  0.5000020    0.00000       Uiso       1.00
       C72          C  0.4392435  0.5252599  0.5000020    0.00000       Uiso       1.00
       H46          H  0.5031090  0.0961553  0.5000020    0.00000       Uiso       1.00
       H47          H  0.4437350  0.0478685  0.5000020    0.00000       Uiso       1.00
       H48          H  0.0960983  0.5926757  0.5000020    0.00000       Uiso       1.00
