data_DhaTph-23
_audit_creation_date              0000-00-00
_audit_creation_method            'LanYouShi'
_symmetry_space_group_name_H-M    'P1'
_cell_length_a                    6.7448001
_cell_length_b                    39.9066010
_cell_length_c                    32.7807999
_cell_angle_alpha                 90.0000000
_cell_angle_beta                  90.0000000
_cell_angle_gamma                 90.0000000
loop_
_atom_site_label
_atom_site_type_symbol
_atom_site_fract_x
_atom_site_fract_y
_atom_site_fract_z
_atom_site_U_iso_or_equiv
_atom_site_adp_type
_atom_site_occupancy
        C1          C  0.4999994  0.2396965  0.5987442    0.00000       Uiso       1.00
        C2          C  0.4999994  0.7521382  0.0145737    0.00000       Uiso       1.00
        C3          C  0.4999994  0.7396965  0.0987435    0.00000       Uiso       1.00
        C4          C  0.4999994  0.2521382  0.5145743    0.00000       Uiso       1.00
        C5          C  0.4999994  0.7603036  0.5987442    0.00000       Uiso       1.00
        C6          C  0.4999994  0.2478618  0.0145737    0.00000       Uiso       1.00
        C7          C  0.4999994  0.2603036  0.0987435    0.00000       Uiso       1.00
        C8          C  0.4999994  0.7478619  0.5145743    0.00000       Uiso       1.00
        C9          C  0.4999994  0.2787074  0.5420306    0.00000       Uiso       1.00
       C10          C  0.4999994  0.7120846  0.0710173    0.00000       Uiso       1.00
       C11          C  0.4999994  0.7787074  0.0420299    0.00000       Uiso       1.00
       C12          C  0.4999994  0.2120845  0.5710180    0.00000       Uiso       1.00
       C13          C  0.4999994  0.7212927  0.5420306    0.00000       Uiso       1.00
       C14          C  0.4999994  0.2879155  0.0710173    0.00000       Uiso       1.00
       C15          C  0.4999994  0.2212926  0.0420299    0.00000       Uiso       1.00
       C16          C  0.4999994  0.7879155  0.5710180    0.00000       Uiso       1.00
       C17          C  0.4999994  0.1930803  0.4945720    0.00000       Uiso       1.00
       C18          C  0.4999994  0.8010613  0.1133230    0.00000       Uiso       1.00
       C19          C  0.4999994  0.6930803  0.9945728    0.00000       Uiso       1.00
       C20          C  0.4999994  0.3010613  0.6133236    0.00000       Uiso       1.00
       C21          C  0.4999994  0.8069198  0.4945720    0.00000       Uiso       1.00
       C22          C  0.4999994  0.1989387  0.1133230    0.00000       Uiso       1.00
       C23          C  0.4999994  0.3069197  0.9945728    0.00000       Uiso       1.00
       C24          C  0.4999994  0.6989388  0.6133236    0.00000       Uiso       1.00
       C25          C  0.4999994  0.2727855  0.5840812    0.00000       Uiso       1.00
       C26          C  0.4999994  0.7186025  0.0279149    0.00000       Uiso       1.00
       C27          C  0.4999994  0.7727855  0.0840806    0.00000       Uiso       1.00
       C28          C  0.4999994  0.2186025  0.5279156    0.00000       Uiso       1.00
       C29          C  0.4999994  0.7272146  0.5840812    0.00000       Uiso       1.00
       C30          C  0.4999994  0.2813975  0.0279149    0.00000       Uiso       1.00
       C31          C  0.4999994  0.2272146  0.0840806    0.00000       Uiso       1.00
       C32          C  0.4999994  0.7813976  0.5279156    0.00000       Uiso       1.00
        N1          N  0.4999994  0.3319562  0.6008197    0.00000       Uiso       1.00
        N2          N  0.4999994  0.6610841  0.0010086    0.00000       Uiso       1.00
        N3          N  0.4999994  0.8319563  0.1008190    0.00000       Uiso       1.00
        N4          N  0.4999994  0.1610840  0.5010093    0.00000       Uiso       1.00
        N5          N  0.4999994  0.6680439  0.6008197    0.00000       Uiso       1.00
        N6          N  0.4999994  0.3389160  0.0010086    0.00000       Uiso       1.00
        N7          N  0.4999994  0.1680439  0.1008190    0.00000       Uiso       1.00
        N8          N  0.4999994  0.8389160  0.5010093    0.00000       Uiso       1.00
        N9          N  0.4999994  0.0575619  0.2965686    0.00000       Uiso       1.00
       N10          N  0.4999994  0.5575619  0.7965693    0.00000       Uiso       1.00
       N11          N  0.4999994  0.9424382  0.2965686    0.00000       Uiso       1.00
       N12          N  0.4999994  0.4424381  0.7965693    0.00000       Uiso       1.00
        H1          H  0.4999994  0.0335304  0.2965524    0.00000       Uiso       1.00
        H2          H  0.4999994  0.5335305  0.7965531    0.00000       Uiso       1.00
        H3          H  0.4999994  0.9664696  0.2965524    0.00000       Uiso       1.00
        H4          H  0.4999994  0.4664696  0.7965531    0.00000       Uiso       1.00
       C33          C  0.4999994  0.0758735  0.2623345    0.00000       Uiso       1.00
       C34          C  0.4999994  0.9241185  0.3308103    0.00000       Uiso       1.00
       C35          C  0.4999994  0.5758736  0.7623352    0.00000       Uiso       1.00
       C36          C  0.4999994  0.4241185  0.8308110    0.00000       Uiso       1.00
       C37          C  0.4999994  0.9241266  0.2623345    0.00000       Uiso       1.00
       C38          C  0.4999994  0.0758815  0.3308103    0.00000       Uiso       1.00
       C39          C  0.4999994  0.4241265  0.7623352    0.00000       Uiso       1.00
       C40          C  0.4999994  0.5758815  0.8308110    0.00000       Uiso       1.00
       C41          C  0.4999994  0.1090929  0.2751524    0.00000       Uiso       1.00
       C42          C  0.4999994  0.8909063  0.3180173    0.00000       Uiso       1.00
       C43          C  0.4999994  0.6090929  0.7751530    0.00000       Uiso       1.00
       C44          C  0.4999994  0.3909063  0.8180180    0.00000       Uiso       1.00
       C45          C  0.4999994  0.8909072  0.2751524    0.00000       Uiso       1.00
       C46          C  0.4999994  0.1090937  0.3180173    0.00000       Uiso       1.00
       C47          C  0.4999994  0.3909072  0.7751530    0.00000       Uiso       1.00
       C48          C  0.4999994  0.6090938  0.8180180    0.00000       Uiso       1.00
        H5          H  0.4999994  0.1309988  0.2557324    0.00000       Uiso       1.00
        H6          H  0.4999994  0.8690129  0.3374558    0.00000       Uiso       1.00
        H7          H  0.4999994  0.6309988  0.7557331    0.00000       Uiso       1.00
        H8          H  0.4999994  0.3690129  0.8374565    0.00000       Uiso       1.00
        H9          H  0.4999994  0.8690013  0.2557324    0.00000       Uiso       1.00
       H10          H  0.4999994  0.1309871  0.3374558    0.00000       Uiso       1.00
       H11          H  0.4999994  0.3690012  0.7557331    0.00000       Uiso       1.00
       H12          H  0.4999994  0.6309871  0.8374565    0.00000       Uiso       1.00
       N13          N  0.4999994  0.5000001  0.7285337    0.00000       Uiso       1.00
       N14          N  0.4999994  0.5000001  0.8645357    0.00000       Uiso       1.00
       N15          N  0.4999994  0.0000000  0.2285331    0.00000       Uiso       1.00
       N16          N  0.4999994  0.0000000  0.3645351    0.00000       Uiso       1.00
       C49          C  0.4999994  0.5294959  0.7045732    0.00000       Uiso       1.00
       C50          C  0.4999994  0.4705123  0.8885047    0.00000       Uiso       1.00
       C51          C  0.4999994  0.0294959  0.2045725    0.00000       Uiso       1.00
       C52          C  0.4999994  0.9705124  0.3885040    0.00000       Uiso       1.00
       C53          C  0.4999994  0.4705042  0.7045732    0.00000       Uiso       1.00
       C54          C  0.4999994  0.5294877  0.8885047    0.00000       Uiso       1.00
       C55          C  0.4999994  0.9705042  0.2045725    0.00000       Uiso       1.00
       C56          C  0.4999994  0.0294877  0.3885040    0.00000       Uiso       1.00
       C57          C  0.4999994  0.5169208  0.6622417    0.00000       Uiso       1.00
       C58          C  0.4999994  0.4830865  0.9308404    0.00000       Uiso       1.00
       C59          C  0.4999994  0.0169208  0.1622410    0.00000       Uiso       1.00
       C60          C  0.4999994  0.9830865  0.4308397    0.00000       Uiso       1.00
       C61          C  0.4999994  0.4830793  0.6622417    0.00000       Uiso       1.00
       C62          C  0.4999994  0.5169136  0.9308404    0.00000       Uiso       1.00
       C63          C  0.4999994  0.9830793  0.1622410    0.00000       Uiso       1.00
       C64          C  0.4999994  0.0169135  0.4308397    0.00000       Uiso       1.00
       H13          H  0.4999994  0.5322769  0.6350476    0.00000       Uiso       1.00
       H14          H  0.4999994  0.4677390  0.9580485    0.00000       Uiso       1.00
       H15          H  0.4999994  0.0322769  0.1350469    0.00000       Uiso       1.00
       H16          H  0.4999994  0.9677390  0.4580479    0.00000       Uiso       1.00
       H17          H  0.4999994  0.4677232  0.6350476    0.00000       Uiso       1.00
       H18          H  0.4999994  0.5322611  0.9580485    0.00000       Uiso       1.00
       H19          H  0.4999994  0.9677231  0.1350469    0.00000       Uiso       1.00
       H20          H  0.4999994  0.0322611  0.4580479    0.00000       Uiso       1.00
       C65          C  0.4999994  0.0625387  0.2180980    0.00000       Uiso       1.00
       C66          C  0.4999994  0.9374577  0.3750220    0.00000       Uiso       1.00
       C67          C  0.4999994  0.5625387  0.7180987    0.00000       Uiso       1.00
       C68          C  0.4999994  0.4374577  0.8750226    0.00000       Uiso       1.00
       C69          C  0.4999994  0.9374614  0.2180980    0.00000       Uiso       1.00
       C70          C  0.4999994  0.0625423  0.3750220    0.00000       Uiso       1.00
       C71          C  0.4999994  0.4374613  0.7180987    0.00000       Uiso       1.00
       C72          C  0.4999994  0.5625423  0.8750226    0.00000       Uiso       1.00
       C73          C  0.4999994  0.0887499  0.1864468    0.00000       Uiso       1.00
       C74          C  0.4999994  0.9114061  0.4068761    0.00000       Uiso       1.00
       C75          C  0.4999994  0.5887499  0.6864475    0.00000       Uiso       1.00
       C76          C  0.4999994  0.4114061  0.9068768    0.00000       Uiso       1.00
       C77          C  0.4999994  0.9112502  0.1864468    0.00000       Uiso       1.00
       C78          C  0.4999994  0.0885939  0.4068761    0.00000       Uiso       1.00
       C79          C  0.4999994  0.4112502  0.6864475    0.00000       Uiso       1.00
       C80          C  0.4999994  0.5885940  0.9068768    0.00000       Uiso       1.00
       C81          C  0.6797860  0.6016870  0.6718790    0.00000       Uiso       1.00
       C82          C  0.6798025  0.3991596  0.9223089    0.00000       Uiso       1.00
       C83          C  0.6797860  0.1016869  0.1718783    0.00000       Uiso       1.00
       C84          C  0.6798025  0.8991596  0.4223082    0.00000       Uiso       1.00
       C85          C  0.3202128  0.3983131  0.6718790    0.00000       Uiso       1.00
       C86          C  0.3201964  0.6008404  0.9223089    0.00000       Uiso       1.00
       C87          C  0.3202128  0.8983132  0.1718783    0.00000       Uiso       1.00
       C88          C  0.3201964  0.1008404  0.4223082    0.00000       Uiso       1.00
       C89          C  0.6797860  0.3983131  0.6718790    0.00000       Uiso       1.00
       C90          C  0.6798025  0.6008404  0.9223089    0.00000       Uiso       1.00
       C91          C  0.6797860  0.8983132  0.1718783    0.00000       Uiso       1.00
       C92          C  0.6798025  0.1008404  0.4223082    0.00000       Uiso       1.00
       C93          C  0.3202128  0.6016870  0.6718790    0.00000       Uiso       1.00
       C94          C  0.3201964  0.3991596  0.9223089    0.00000       Uiso       1.00
       C95          C  0.3202128  0.1016869  0.1718783    0.00000       Uiso       1.00
       C96          C  0.3201964  0.8991596  0.4223082    0.00000       Uiso       1.00
       H21          H  0.8190742  0.0918945  0.1831500    0.00000       Uiso       1.00
       H22          H  0.8191137  0.9086239  0.4106454    0.00000       Uiso       1.00
       H23          H  0.8190742  0.5918946  0.6831508    0.00000       Uiso       1.00
       H24          H  0.8191137  0.4086239  0.9106461    0.00000       Uiso       1.00
       H25          H  0.1809246  0.9081055  0.1831500    0.00000       Uiso       1.00
       H26          H  0.1808851  0.0913761  0.4106454    0.00000       Uiso       1.00
       H27          H  0.1809246  0.4081055  0.6831508    0.00000       Uiso       1.00
       H28          H  0.1808851  0.5913762  0.9106461    0.00000       Uiso       1.00
       H29          H  0.8190742  0.9081055  0.1831500    0.00000       Uiso       1.00
       H30          H  0.8191137  0.0913761  0.4106454    0.00000       Uiso       1.00
       H31          H  0.8190742  0.4081055  0.6831508    0.00000       Uiso       1.00
       H32          H  0.8191137  0.5913762  0.9106461    0.00000       Uiso       1.00
       H33          H  0.1809246  0.0918945  0.1831500    0.00000       Uiso       1.00
       H34          H  0.1808851  0.9086239  0.4106454    0.00000       Uiso       1.00
       H35          H  0.1809246  0.5918946  0.6831508    0.00000       Uiso       1.00
       H36          H  0.1808851  0.4086239  0.9106461    0.00000       Uiso       1.00
       C97          C  0.6794640  0.1276007  0.1431155    0.00000       Uiso       1.00
       C98          C  0.6794189  0.8749619  0.4532160    0.00000       Uiso       1.00
       C99          C  0.6794640  0.6276007  0.6431162    0.00000       Uiso       1.00
      C100          C  0.6794189  0.3749619  0.9532167    0.00000       Uiso       1.00
      C101          C  0.3205348  0.8723994  0.1431155    0.00000       Uiso       1.00
      C102          C  0.3205800  0.1250381  0.4532160    0.00000       Uiso       1.00
      C103          C  0.3205348  0.3723994  0.6431162    0.00000       Uiso       1.00
      C104          C  0.3205800  0.6250381  0.9532167    0.00000       Uiso       1.00
      C105          C  0.6794640  0.8723994  0.1431155    0.00000       Uiso       1.00
      C106          C  0.6794189  0.1250381  0.4532160    0.00000       Uiso       1.00
      C107          C  0.6794640  0.3723994  0.6431162    0.00000       Uiso       1.00
      C108          C  0.6794189  0.6250381  0.9532167    0.00000       Uiso       1.00
      C109          C  0.3205348  0.1276007  0.1431155    0.00000       Uiso       1.00
      C110          C  0.3205800  0.8749619  0.4532160    0.00000       Uiso       1.00
      C111          C  0.3205348  0.6276007  0.6431162    0.00000       Uiso       1.00
      C112          C  0.3205800  0.3749619  0.9532167    0.00000       Uiso       1.00
       H37          H  0.8176904  0.1378642  0.1320581    0.00000       Uiso       1.00
       H38          H  0.8174418  0.8657168  0.4656232    0.00000       Uiso       1.00
       H39          H  0.8176904  0.6378642  0.6320589    0.00000       Uiso       1.00
       H40          H  0.8174418  0.3657168  0.9656239    0.00000       Uiso       1.00
       H41          H  0.1823084  0.8621358  0.1320581    0.00000       Uiso       1.00
       H42          H  0.1825570  0.1342833  0.4656232    0.00000       Uiso       1.00
       H43          H  0.1823084  0.3621358  0.6320589    0.00000       Uiso       1.00
       H44          H  0.1825570  0.6342833  0.9656239    0.00000       Uiso       1.00
       H45          H  0.8176904  0.8621358  0.1320581    0.00000       Uiso       1.00
       H46          H  0.8174418  0.1342833  0.4656232    0.00000       Uiso       1.00
       H47          H  0.8176904  0.3621358  0.6320589    0.00000       Uiso       1.00
       H48          H  0.8174418  0.6342833  0.9656239    0.00000       Uiso       1.00
       H49          H  0.1823084  0.1378642  0.1320581    0.00000       Uiso       1.00
       H50          H  0.1825570  0.8657168  0.4656232    0.00000       Uiso       1.00
       H51          H  0.1823084  0.6378642  0.6320589    0.00000       Uiso       1.00
       H52          H  0.1825570  0.3657168  0.9656239    0.00000       Uiso       1.00
      C113          C  0.4999994  0.1407357  0.1289509    0.00000       Uiso       1.00
      C114          C  0.4999994  0.8628004  0.4685951    0.00000       Uiso       1.00
      C115          C  0.4999994  0.6407357  0.6289516    0.00000       Uiso       1.00
      C116          C  0.4999994  0.3628003  0.9685958    0.00000       Uiso       1.00
      C117          C  0.4999994  0.8592644  0.1289509    0.00000       Uiso       1.00
      C118          C  0.4999994  0.1371997  0.4685951    0.00000       Uiso       1.00
      C119          C  0.4999994  0.3592643  0.6289516    0.00000       Uiso       1.00
      C120          C  0.4999994  0.6371997  0.9685958    0.00000       Uiso       1.00
        O1          O  0.4999994  0.2348919  0.6413618    0.00000       Uiso       1.00
       H53          H  0.4999994  0.3041854  0.5304400    0.00000       Uiso       1.00
       H54          H  0.4999994  0.2019654  0.4632372    0.00000       Uiso       1.00
       H55          H  0.4999994  0.7579768  0.9822402    0.00000       Uiso       1.00
        O2          O  0.4999994  0.6797327  0.0883576    0.00000       Uiso       1.00
       H56          H  0.4999994  0.7956660  0.1458369    0.00000       Uiso       1.00
       H57          H  0.4999994  0.2102503  0.6493365    0.00000       Uiso       1.00
       H58          H  0.4999994  0.6601121  0.0691354    0.00000       Uiso       1.00
        O3          O  0.4999994  0.7348920  0.1413610    0.00000       Uiso       1.00
       H59          H  0.4999994  0.8041855  0.0304393    0.00000       Uiso       1.00
       H60          H  0.4999994  0.7019654  0.9632378    0.00000       Uiso       1.00
       H61          H  0.4999994  0.2579768  0.4822395    0.00000       Uiso       1.00
        O4          O  0.4999994  0.1797326  0.5883583    0.00000       Uiso       1.00
       H62          H  0.4999994  0.2956659  0.6458376    0.00000       Uiso       1.00
       H63          H  0.4999994  0.7102503  0.1493358    0.00000       Uiso       1.00
       H64          H  0.4999994  0.1601121  0.5691361    0.00000       Uiso       1.00
        O5          O  0.4999994  0.7651082  0.6413618    0.00000       Uiso       1.00
       H65          H  0.4999994  0.6958147  0.5304400    0.00000       Uiso       1.00
       H66          H  0.4999994  0.7980347  0.4632372    0.00000       Uiso       1.00
       H67          H  0.4999994  0.2420232  0.9822402    0.00000       Uiso       1.00
        O6          O  0.4999994  0.3202674  0.0883576    0.00000       Uiso       1.00
       H68          H  0.4999994  0.2043341  0.1458369    0.00000       Uiso       1.00
       H69          H  0.4999994  0.7897498  0.6493365    0.00000       Uiso       1.00
       H70          H  0.4999994  0.3398879  0.0691354    0.00000       Uiso       1.00
        O7          O  0.4999994  0.2651081  0.1413610    0.00000       Uiso       1.00
       H71          H  0.4999994  0.1958146  0.0304393    0.00000       Uiso       1.00
       H72          H  0.4999994  0.2980346  0.9632378    0.00000       Uiso       1.00
       H73          H  0.4999994  0.7420232  0.4822395    0.00000       Uiso       1.00
        O8          O  0.4999994  0.8202674  0.5883583    0.00000       Uiso       1.00
       H74          H  0.4999994  0.7043341  0.6458376    0.00000       Uiso       1.00
       H75          H  0.4999994  0.2897498  0.1493358    0.00000       Uiso       1.00
       H76          H  0.4999994  0.8398880  0.5691361    0.00000       Uiso       1.00
