data_crystal
 
_cell_length_a    25.78820
_cell_length_b    6.74430
_cell_length_c    25.89790
_cell_angle_alpha 90.00000
_cell_angle_beta  100.37860
_cell_angle_gamma 90.00000
 
_symmetry_space_group_name_Hall 'P 1'
_symmetry_space_group_name_H-M  'P 1'
 
loop_
_symmetry_equiv_pos_as_xyz
 'x,y,z' 
 
loop_
_atom_site_label
_atom_site_type_symbol
_atom_site_fract_x
_atom_site_fract_y
_atom_site_fract_z
_atom_site_charge
C          C       0.46750   0.50000   0.45017   0.0000000000
C          C       0.95339   0.50000   0.96380   0.0000000000
C          C       0.53250   0.50000   0.54984   0.0000000000
C          C       0.04661   0.50000   0.03621   0.0000000000
C          C       0.47754   0.50000   0.54527   0.0000000000
C          C       0.04909   0.50000   0.98286   0.0000000000
C          C       0.52246   0.50000   0.45473   0.0000000000
C          C       0.95091   0.50000   0.01714   0.0000000000
C          C       0.61329   0.50000   0.50948   0.0000000000
C          C       0.00335   0.50000   0.11308   0.0000000000
C          C       0.38671   0.50000   0.49052   0.0000000000
C          C       0.99665   0.50000   0.88692   0.0000000000
C          C       0.44472   0.50000   0.49562   0.0000000000
C          C       0.00133   0.50000   0.94517   0.0000000000
C          C       0.55527   0.50000   0.50439   0.0000000000
C          C       0.99867   0.50000   0.05484   0.0000000000
N          N       0.36449   0.50000   0.53173   0.0000000000
N          N       0.03690   0.50000   0.86341   0.0000000000
N          N       0.63550   0.50000   0.46827   0.0000000000
N          N       0.96310   0.50000   0.13659   0.0000000000
N          N       0.94233   0.50000   0.55808   0.0000000000
N          N       0.05767   0.50000   0.44192   0.0000000000
H          H       0.96640   0.50000   0.53384   0.0000000000
H          H       0.03360   0.50000   0.46616   0.0000000000
C          C       0.95811   0.50000   0.61026   0.0000000000
C          C       0.11013   0.50000   0.45716   0.0000000000
C          C       0.04189   0.50000   0.38974   0.0000000000
C          C       0.88987   0.50000   0.54284   0.0000000000
C          C       0.91208   0.50000   0.63116   0.0000000000
C          C       0.13064   0.50000   0.41105   0.0000000000
C          C       0.08792   0.50000   0.36884   0.0000000000
C          C       0.86936   0.50000   0.58895   0.0000000000
H          H       0.90951   0.50000   0.67238   0.0000000000
H          H       0.17194   0.50000   0.40809   0.0000000000
H          H       0.09049   0.50000   0.32762   0.0000000000
H          H       0.82806   0.50000   0.59191   0.0000000000
N          N       0.06775   0.50000   0.56693   0.0000000000
N          N       0.93225   0.50000   0.43307   0.0000000000
C          C       0.06209   0.50000   0.62028   0.0000000000
C          C       0.12117   0.50000   0.56078   0.0000000000
C          C       0.93791   0.50000   0.37972   0.0000000000
C          C       0.87883   0.50000   0.43922   0.0000000000
C          C       0.11688   0.50000   0.64927   0.0000000000
C          C       0.15076   0.50000   0.61515   0.0000000000
C          C       0.88312   0.50000   0.35073   0.0000000000
C          C       0.84924   0.50000   0.38485   0.0000000000
H          H       0.12861   0.50000   0.69154   0.0000000000
H          H       0.19324   0.50000   0.62646   0.0000000000
H          H       0.87139   0.50000   0.30846   0.0000000000
H          H       0.80675   0.50000   0.37355   0.0000000000
C          C       0.01554   0.50000   0.64034   0.0000000000
C          C       0.14083   0.50000   0.51416   0.0000000000
C          C       0.98446   0.50000   0.35967   0.0000000000
C          C       0.85917   0.50000   0.48584   0.0000000000
C          C       0.02108   0.50000   0.69796   0.0000000000
C          C       0.19865   0.50000   0.51911   0.0000000000
C          C       0.97892   0.50000   0.30204   0.0000000000
C          C       0.80135   0.50000   0.48089   0.0000000000
C          C       0.02366   0.32018   0.72547   0.0000000000
C          C       0.22623   0.67980   0.52126   0.0000000000
C          C       0.97634   0.32018   0.27453   0.0000000000
C          C       0.77377   0.67980   0.47874   0.0000000000
C          C       0.97634   0.67982   0.27453   0.0000000000
C          C       0.77377   0.32020   0.47874   0.0000000000
C          C       0.02366   0.67982   0.72547   0.0000000000
C          C       0.22623   0.32020   0.52126   0.0000000000
H          H       0.02176   0.18086   0.70446   0.0000000000
H          H       0.20514   0.81911   0.51960   0.0000000000
H          H       0.97824   0.18086   0.29554   0.0000000000
H          H       0.79486   0.81911   0.48040   0.0000000000
H          H       0.97824   0.81914   0.29554   0.0000000000
H          H       0.79486   0.18090   0.48040   0.0000000000
H          H       0.02176   0.81914   0.70446   0.0000000000
H          H       0.20514   0.18090   0.51960   0.0000000000
C          C       0.02887   0.32056   0.78021   0.0000000000
C          C       0.28111   0.67947   0.52556   0.0000000000
C          C       0.97112   0.32056   0.21980   0.0000000000
C          C       0.71889   0.67947   0.47444   0.0000000000
C          C       0.97112   0.67944   0.21980   0.0000000000
C          C       0.71889   0.32053   0.47444   0.0000000000
C          C       0.02887   0.67944   0.78021   0.0000000000
C          C       0.28111   0.32053   0.52556   0.0000000000
H          H       0.03115   0.18252   0.80170   0.0000000000
H          H       0.30257   0.81770   0.52732   0.0000000000
H          H       0.96885   0.18252   0.19831   0.0000000000
H          H       0.69743   0.81770   0.47268   0.0000000000
H          H       0.96885   0.81748   0.19831   0.0000000000
H          H       0.69743   0.18230   0.47268   0.0000000000
H          H       0.03115   0.81748   0.80170   0.0000000000
H          H       0.30257   0.18230   0.52732   0.0000000000
C          C       0.03124   0.50000   0.80755   0.0000000000
C          C       0.30854   0.50000   0.52749   0.0000000000
C          C       0.96875   0.50000   0.19245   0.0000000000
C          C       0.69146   0.50000   0.47251   0.0000000000
O          O       0.43508   0.50000   0.40071   0.0000000000
H          H       0.46047   0.50000   0.58048   0.0000000000
H          H       0.63737   0.50000   0.54854   0.0000000000
H          H       0.91621   0.50000   0.93657   0.0000000000
O          O       0.10003   0.50000   0.97143   0.0000000000
H          H       0.04265   0.50000   0.13687   0.0000000000
H          H       0.03846   0.50000   0.53799   0.0000000000
H          H       0.45503   0.50000   0.37032   0.0000000000
H          H       0.10288   0.50000   0.93323   0.0000000000
O          O       0.56492   0.50000   0.59929   0.0000000000
H          H       0.53953   0.50000   0.41952   0.0000000000
H          H       0.36263   0.50000   0.45147   0.0000000000
H          H       0.08379   0.50000   0.06343   0.0000000000
O          O       0.89997   0.50000   0.02857   0.0000000000
H          H       0.95735   0.50000   0.86313   0.0000000000
H          H       0.96154   0.50000   0.46201   0.0000000000
H          H       0.54497   0.50000   0.62968   0.0000000000
H          H       0.89712   0.50000   0.06677   0.0000000000
