data_DhaTph-25
_audit_creation_date              0000-00-00
_audit_creation_method            'LanYouShi'
_symmetry_space_group_name_H-M    'P1'
_cell_length_a                    25.7882004
_cell_length_b                    6.7442999
_cell_length_c                    25.8978996
_cell_angle_alpha                 90.0000000
_cell_angle_beta                  100.3786011
_cell_angle_gamma                 90.0000000
loop_
_atom_site_label
_atom_site_type_symbol
_atom_site_fract_x
_atom_site_fract_y
_atom_site_fract_z
_atom_site_U_iso_or_equiv
_atom_site_adp_type
_atom_site_occupancy
        C1          C  0.4675025  0.5000007  0.4501651    0.00000       Uiso       1.00
        C2          C  0.9533853  0.5000007  0.9637967    0.00000       Uiso       1.00
        C3          C  0.5324957  0.5000007  0.5498368    0.00000       Uiso       1.00
        C4          C  0.0466129  0.5000007  0.0362050    0.00000       Uiso       1.00
        C5          C  0.4775367  0.5000007  0.5452706    0.00000       Uiso       1.00
        C6          C  0.0490857  0.5000007  0.9828576    0.00000       Uiso       1.00
        C7          C  0.5224615  0.5000007  0.4547312    0.00000       Uiso       1.00
        C8          C  0.9509126  0.5000007  0.0171442    0.00000       Uiso       1.00
        C9          C  0.6132927  0.5000007  0.5094809    0.00000       Uiso       1.00
       C10          C  0.0033457  0.5000007  0.1130816    0.00000       Uiso       1.00
       C11          C  0.3867056  0.5000007  0.4905210    0.00000       Uiso       1.00
       C12          C  0.9966525  0.5000007  0.8869202    0.00000       Uiso       1.00
       C13          C  0.4447239  0.5000007  0.4956161    0.00000       Uiso       1.00
       C14          C  0.0013327  0.5000007  0.9451650    0.00000       Uiso       1.00
       C15          C  0.5552744  0.5000007  0.5043858    0.00000       Uiso       1.00
       C16          C  0.9986656  0.5000007  0.0548368    0.00000       Uiso       1.00
        N1          N  0.3644933  0.5000007  0.5317267    0.00000       Uiso       1.00
        N2          N  0.0368967  0.5000007  0.8634146    0.00000       Uiso       1.00
        N3          N  0.6355050  0.5000007  0.4682750    0.00000       Uiso       1.00
        N4          N  0.9631015  0.5000007  0.1365873    0.00000       Uiso       1.00
        N5          N  0.9423277  0.5000007  0.5580802    0.00000       Uiso       1.00
        N6          N  0.0576705  0.5000007  0.4419216    0.00000       Uiso       1.00
        H1          H  0.9663978  0.5000007  0.5338443    0.00000       Uiso       1.00
        H2          H  0.0336005  0.5000007  0.4661575    0.00000       Uiso       1.00
       C17          C  0.9581058  0.5000007  0.6102632    0.00000       Uiso       1.00
       C18          C  0.1101325  0.5000007  0.4571611    0.00000       Uiso       1.00
       C19          C  0.0418924  0.5000007  0.3897386    0.00000       Uiso       1.00
       C20          C  0.8898657  0.5000007  0.5428407    0.00000       Uiso       1.00
       C21          C  0.9120790  0.5000007  0.6311595    0.00000       Uiso       1.00
       C22          C  0.1306406  0.5000007  0.4110505    0.00000       Uiso       1.00
       C23          C  0.0879192  0.5000007  0.3688423    0.00000       Uiso       1.00
       C24          C  0.8693576  0.5000007  0.5889512    0.00000       Uiso       1.00
        H3          H  0.9095131  0.5000007  0.6723794    0.00000       Uiso       1.00
        H4          H  0.1719389  0.5000007  0.4080934    0.00000       Uiso       1.00
        H5          H  0.0904852  0.5000007  0.3276223    0.00000       Uiso       1.00
        H6          H  0.8280594  0.5000007  0.5919084    0.00000       Uiso       1.00
        N7          N  0.0677452  0.5000007  0.5669304    0.00000       Uiso       1.00
        N8          N  0.9322530  0.5000007  0.4330714    0.00000       Uiso       1.00
       C25          C  0.0620910  0.5000007  0.6202767    0.00000       Uiso       1.00
       C26          C  0.1211699  0.5000007  0.5607848    0.00000       Uiso       1.00
       C27          C  0.9379073  0.5000007  0.3797250    0.00000       Uiso       1.00
       C28          C  0.8788283  0.5000007  0.4392170    0.00000       Uiso       1.00
       C29          C  0.1168750  0.5000007  0.6492743    0.00000       Uiso       1.00
       C30          C  0.1507615  0.5000007  0.6151511    0.00000       Uiso       1.00
       C31          C  0.8831232  0.5000007  0.3507275    0.00000       Uiso       1.00
       C32          C  0.8492367  0.5000007  0.3848507    0.00000       Uiso       1.00
        H7          H  0.1286059  0.5000007  0.6915428    0.00000       Uiso       1.00
        H8          H  0.1932437  0.5000007  0.6264561    0.00000       Uiso       1.00
        H9          H  0.8713924  0.5000007  0.3084590    0.00000       Uiso       1.00
       H10          H  0.8067546  0.5000007  0.3735456    0.00000       Uiso       1.00
       C33          C  0.0155412  0.5000007  0.6403353    0.00000       Uiso       1.00
       C34          C  0.1408298  0.5000007  0.5141626    0.00000       Uiso       1.00
       C35          C  0.9844570  0.5000007  0.3596664    0.00000       Uiso       1.00
       C36          C  0.8591684  0.5000007  0.4858392    0.00000       Uiso       1.00
       C37          C  0.0210807  0.5000007  0.6979638    0.00000       Uiso       1.00
       C38          C  0.1986505  0.5000007  0.5191103    0.00000       Uiso       1.00
       C39          C  0.9789175  0.5000007  0.3020379    0.00000       Uiso       1.00
       C40          C  0.8013477  0.5000007  0.4808915    0.00000       Uiso       1.00
       C41          C  0.0236572  0.3201841  0.7254674    0.00000       Uiso       1.00
       C42          C  0.2262285  0.6798028  0.5212597    0.00000       Uiso       1.00
       C43          C  0.9763411  0.3201841  0.2745344    0.00000       Uiso       1.00
       C44          C  0.7737698  0.6798028  0.4787422    0.00000       Uiso       1.00
       C45          C  0.9763411  0.6798171  0.2745344    0.00000       Uiso       1.00
       C46          C  0.7737698  0.3201984  0.4787422    0.00000       Uiso       1.00
       C47          C  0.0236572  0.6798171  0.7254674    0.00000       Uiso       1.00
       C48          C  0.2262285  0.3201984  0.5212597    0.00000       Uiso       1.00
       H11          H  0.0217616  0.1808637  0.7044585    0.00000       Uiso       1.00
       H12          H  0.2051416  0.8191060  0.5196017    0.00000       Uiso       1.00
       H13          H  0.9782366  0.1808637  0.2955433    0.00000       Uiso       1.00
       H14          H  0.7948566  0.8191060  0.4804001    0.00000       Uiso       1.00
       H15          H  0.9782366  0.8191375  0.2955433    0.00000       Uiso       1.00
       H16          H  0.7948566  0.1808952  0.4804001    0.00000       Uiso       1.00
       H17          H  0.0217616  0.8191375  0.7044585    0.00000       Uiso       1.00
       H18          H  0.2051416  0.1808952  0.5196017    0.00000       Uiso       1.00
       C49          C  0.0288733  0.3205616  0.7802059    0.00000       Uiso       1.00
       C50          C  0.2811079  0.6794738  0.5255632    0.00000       Uiso       1.00
       C51          C  0.9711249  0.3205616  0.2197959    0.00000       Uiso       1.00
       C52          C  0.7188904  0.6794738  0.4744386    0.00000       Uiso       1.00
       C53          C  0.9711249  0.6794397  0.2197959    0.00000       Uiso       1.00
       C54          C  0.7188904  0.3205274  0.4744386    0.00000       Uiso       1.00
       C55          C  0.0288733  0.6794397  0.7802059    0.00000       Uiso       1.00
       C56          C  0.2811079  0.3205274  0.5255632    0.00000       Uiso       1.00
       H19          H  0.0311476  0.1825228  0.8016967    0.00000       Uiso       1.00
       H20          H  0.3025676  0.8177014  0.5273181    0.00000       Uiso       1.00
       H21          H  0.9688507  0.1825228  0.1983051    0.00000       Uiso       1.00
       H22          H  0.6974306  0.8177014  0.4726837    0.00000       Uiso       1.00
       H23          H  0.9688507  0.8174785  0.1983051    0.00000       Uiso       1.00
       H24          H  0.6974306  0.1822998  0.4726837    0.00000       Uiso       1.00
       H25          H  0.0311476  0.8174785  0.8016967    0.00000       Uiso       1.00
       H26          H  0.3025676  0.1822998  0.5273181    0.00000       Uiso       1.00
       C57          C  0.0312439  0.5000007  0.8075535    0.00000       Uiso       1.00
       C58          C  0.3085391  0.5000007  0.5274922    0.00000       Uiso       1.00
       C59          C  0.9687544  0.5000007  0.1924482    0.00000       Uiso       1.00
       C60          C  0.6914592  0.5000007  0.4725096    0.00000       Uiso       1.00
        O1          O  0.4350777  0.5000007  0.4007103    0.00000       Uiso       1.00
       H27          H  0.4604681  0.5000007  0.5804844    0.00000       Uiso       1.00
       H28          H  0.6373690  0.5000007  0.5485356    0.00000       Uiso       1.00
       H29          H  0.9162127  0.5000007  0.9365717    0.00000       Uiso       1.00
        O2          O  0.1000267  0.5000007  0.9714313    0.00000       Uiso       1.00
       H30          H  0.0426504  0.5000007  0.1368696    0.00000       Uiso       1.00
       H31          H  0.0384594  0.5000007  0.5379944    0.00000       Uiso       1.00
       H32          H  0.4550298  0.5000007  0.3703242    0.00000       Uiso       1.00
       H33          H  0.1028768  0.5000007  0.9332295    0.00000       Uiso       1.00
        O3          O  0.5649206  0.5000007  0.5992916    0.00000       Uiso       1.00
       H34          H  0.5395301  0.5000007  0.4195174    0.00000       Uiso       1.00
       H35          H  0.3626293  0.5000007  0.4514662    0.00000       Uiso       1.00
       H36          H  0.0837856  0.5000007  0.0634300    0.00000       Uiso       1.00
        O4          O  0.8999715  0.5000007  0.0285705    0.00000       Uiso       1.00
       H37          H  0.9573479  0.5000007  0.8631322    0.00000       Uiso       1.00
       H38          H  0.9615389  0.5000007  0.4620074    0.00000       Uiso       1.00
       H39          H  0.5449685  0.5000007  0.6296777    0.00000       Uiso       1.00
       H40          H  0.8971214  0.5000007  0.0667723    0.00000       Uiso       1.00
