data_crystal
 
_cell_length_a    65.53090
_cell_length_b    37.83430
_cell_length_c    3.40000
_cell_angle_alpha 90.00000
_cell_angle_beta  90.00000
_cell_angle_gamma 90.00000
 
_symmetry_space_group_name_Hall 'P 1'
_symmetry_space_group_name_H-M  'P 1'
 
loop_
_symmetry_equiv_pos_as_xyz
 'x,y,z' 
 
loop_
_atom_site_label
_atom_site_type_symbol
_atom_site_fract_x
_atom_site_fract_y
_atom_site_fract_z
_atom_site_charge
C          C       0.73299   0.13831   0.49759   0.0000000000
C          C       0.55853   0.01268   0.45113   0.0000000000
C          C       0.70926   0.81233   0.49829   0.0000000000
C          C       0.23299   0.63831   0.49759   0.0000000000
C          C       0.05853   0.51268   0.45113   0.0000000000
C          C       0.20926   0.31233   0.49829   0.0000000000
C          C       0.26701   0.13831   0.50241   0.0000000000
C          C       0.44147   0.01268   0.54887   0.0000000000
C          C       0.29074   0.81233   0.50171   0.0000000000
C          C       0.76701   0.63831   0.50241   0.0000000000
C          C       0.94147   0.51268   0.54887   0.0000000000
C          C       0.79074   0.31233   0.50171   0.0000000000
N          N       0.72780   0.17324   0.47516   0.0000000000
N          N       0.54314   0.98855   0.49424   0.0000000000
N          N       0.72929   0.80249   0.52149   0.0000000000
N          N       0.22780   0.67324   0.47516   0.0000000000
N          N       0.04314   0.48855   0.49424   0.0000000000
N          N       0.22929   0.30249   0.52149   0.0000000000
N          N       0.27220   0.17324   0.52484   0.0000000000
N          N       0.45686   0.98855   0.50576   0.0000000000
N          N       0.27071   0.80249   0.47851   0.0000000000
N          N       0.77220   0.67324   0.52484   0.0000000000
N          N       0.95686   0.48855   0.50576   0.0000000000
N          N       0.77071   0.30249   0.47851   0.0000000000
C          C       0.73998   0.20285   0.45618   0.0000000000
C          C       0.52222   0.99268   0.49761   0.0000000000
C          C       0.73795   0.76937   0.54207   0.0000000000
C          C       0.23998   0.70285   0.45618   0.0000000000
C          C       0.02222   0.49268   0.49761   0.0000000000
C          C       0.23795   0.26937   0.54207   0.0000000000
C          C       0.26002   0.20285   0.54382   0.0000000000
C          C       0.47778   0.99268   0.50239   0.0000000000
C          C       0.26205   0.76937   0.45793   0.0000000000
C          C       0.76002   0.70285   0.54382   0.0000000000
C          C       0.97778   0.49268   0.50239   0.0000000000
C          C       0.76205   0.26937   0.45793   0.0000000000
C          C       0.73031   0.23518   0.54855   0.0000000000
C          C       0.51079   0.96101   0.49847   0.0000000000
C          C       0.75895   0.76756   0.45066   0.0000000000
C          C       0.23031   0.73518   0.54855   0.0000000000
C          C       0.01079   0.46101   0.49847   0.0000000000
C          C       0.25895   0.26756   0.45066   0.0000000000
C          C       0.26969   0.23518   0.45145   0.0000000000
C          C       0.48921   0.96101   0.50153   0.0000000000
C          C       0.24105   0.76756   0.54934   0.0000000000
C          C       0.76969   0.73518   0.45145   0.0000000000
C          C       0.98921   0.46101   0.50153   0.0000000000
C          C       0.74105   0.26756   0.54934   0.0000000000
H          H       0.74820   0.13248   0.52109   0.0000000000
H          H       0.55443   0.03836   0.40352   0.0000000000
H          H       0.69869   0.79251   0.47549   0.0000000000
H          H       0.24820   0.63248   0.52109   0.0000000000
H          H       0.05443   0.53836   0.40352   0.0000000000
H          H       0.19869   0.29251   0.47549   0.0000000000
H          H       0.25180   0.13248   0.47891   0.0000000000
H          H       0.44557   0.03836   0.59648   0.0000000000
H          H       0.30131   0.79251   0.52451   0.0000000000
H          H       0.75180   0.63248   0.47891   0.0000000000
H          H       0.94557   0.53836   0.59648   0.0000000000
H          H       0.80131   0.29251   0.52451   0.0000000000
H          H       0.71512   0.23515   0.62033   0.0000000000
H          H       0.51833   0.93729   0.49681   0.0000000000
H          H       0.76659   0.79028   0.37841   0.0000000000
H          H       0.21512   0.73515   0.62033   0.0000000000
H          H       0.01833   0.43729   0.49681   0.0000000000
H          H       0.26659   0.29028   0.37841   0.0000000000
H          H       0.28488   0.23515   0.37967   0.0000000000
H          H       0.48167   0.93729   0.50319   0.0000000000
H          H       0.23341   0.79028   0.62159   0.0000000000
H          H       0.78488   0.73515   0.37967   0.0000000000
H          H       0.98167   0.43729   0.50319   0.0000000000
H          H       0.73341   0.29028   0.62159   0.0000000000
C          C       0.77190   0.23718   0.34669   0.0000000000
C          C       0.98906   0.52502   0.49693   0.0000000000
C          C       0.73900   0.70433   0.65452   0.0000000000
C          C       0.27190   0.73718   0.34669   0.0000000000
C          C       0.48906   0.02502   0.49693   0.0000000000
C          C       0.23900   0.20433   0.65452   0.0000000000
C          C       0.22810   0.23718   0.65331   0.0000000000
C          C       0.01094   0.52502   0.50307   0.0000000000
C          C       0.26100   0.70433   0.34548   0.0000000000
C          C       0.72810   0.73718   0.65331   0.0000000000
C          C       0.51094   0.02502   0.50307   0.0000000000
C          C       0.76100   0.20433   0.34548   0.0000000000
O          O       0.79176   0.23821   0.22240   0.0000000000
O          O       0.97885   0.55648   0.48077   0.0000000000
O          O       0.72953   0.67414   0.78068   0.0000000000
O          O       0.29176   0.73821   0.22240   0.0000000000
O          O       0.47885   0.05648   0.48077   0.0000000000
O          O       0.22953   0.17414   0.78068   0.0000000000
O          O       0.20824   0.23821   0.77760   0.0000000000
O          O       0.02116   0.55648   0.51923   0.0000000000
O          O       0.27047   0.67414   0.21932   0.0000000000
O          O       0.70824   0.73821   0.77760   0.0000000000
O          O       0.52116   0.05648   0.51923   0.0000000000
O          O       0.77047   0.17414   0.21932   0.0000000000
C          C       0.78588   0.37811   0.49006   0.0000000000
C          C       0.91131   0.47177   0.50856   0.0000000000
C          C       0.80227   0.61252   0.51758   0.0000000000
C          C       0.28588   0.87811   0.49006   0.0000000000
C          C       0.41131   0.97177   0.50856   0.0000000000
C          C       0.30227   0.11252   0.51758   0.0000000000
C          C       0.21412   0.37811   0.50994   0.0000000000
C          C       0.08869   0.47177   0.49144   0.0000000000
C          C       0.19773   0.61252   0.48242   0.0000000000
C          C       0.71412   0.87811   0.50994   0.0000000000
C          C       0.58869   0.97177   0.49144   0.0000000000
C          C       0.69773   0.11252   0.48242   0.0000000000
C          C       0.79434   0.41266   0.49133   0.0000000000
C          C       0.88983   0.46681   0.50174   0.0000000000
C          C       0.81527   0.58249   0.51863   0.0000000000
C          C       0.29434   0.91266   0.49133   0.0000000000
C          C       0.38983   0.96681   0.50174   0.0000000000
C          C       0.31527   0.08249   0.51863   0.0000000000
C          C       0.20566   0.41266   0.50867   0.0000000000
C          C       0.11018   0.46681   0.49826   0.0000000000
C          C       0.18473   0.58249   0.48137   0.0000000000
C          C       0.70566   0.91266   0.50867   0.0000000000
C          C       0.61018   0.96681   0.49826   0.0000000000
C          C       0.68473   0.08249   0.48137   0.0000000000
H          H       0.77036   0.37531   0.47967   0.0000000000
H          H       0.92064   0.45013   0.49301   0.0000000000
H          H       0.80867   0.63717   0.52767   0.0000000000
H          H       0.27036   0.87531   0.47967   0.0000000000
H          H       0.42064   0.95013   0.49301   0.0000000000
H          H       0.30867   0.13717   0.52767   0.0000000000
H          H       0.22964   0.37531   0.52033   0.0000000000
H          H       0.07936   0.45013   0.50699   0.0000000000
H          H       0.19133   0.63717   0.47233   0.0000000000
H          H       0.72964   0.87531   0.52033   0.0000000000
H          H       0.57936   0.95013   0.50699   0.0000000000
H          H       0.69133   0.13717   0.47233   0.0000000000
H          H       0.78454   0.43369   0.48188   0.0000000000
H          H       0.88435   0.44155   0.48131   0.0000000000
H          H       0.83068   0.58661   0.52941   0.0000000000
H          H       0.28454   0.93369   0.48188   0.0000000000
H          H       0.38435   0.94155   0.48131   0.0000000000
H          H       0.33068   0.08661   0.52941   0.0000000000
H          H       0.21546   0.43369   0.51812   0.0000000000
H          H       0.11565   0.44155   0.51869   0.0000000000
H          H       0.16932   0.58661   0.47059   0.0000000000
H          H       0.71546   0.93369   0.51812   0.0000000000
H          H       0.61565   0.94155   0.51869   0.0000000000
H          H       0.66932   0.08661   0.47059   0.0000000000
C          C       0.77304   0.57412   0.48973   0.0000000000
C          C       0.81973   0.35361   0.51646   0.0000000000
C          C       0.90620   0.53461   0.55654   0.0000000000
C          C       0.27304   0.07412   0.48973   0.0000000000
C          C       0.31973   0.85361   0.51646   0.0000000000
C          C       0.40620   0.03461   0.55654   0.0000000000
C          C       0.22696   0.57412   0.51027   0.0000000000
C          C       0.18027   0.35361   0.48354   0.0000000000
C          C       0.09380   0.53461   0.44345   0.0000000000
C          C       0.72696   0.07412   0.51027   0.0000000000
C          C       0.68027   0.85361   0.48354   0.0000000000
C          C       0.59380   0.03461   0.44345   0.0000000000
C          C       0.78600   0.54426   0.49137   0.0000000000
C          C       0.82813   0.38802   0.51712   0.0000000000
C          C       0.88484   0.52962   0.54846   0.0000000000
C          C       0.28600   0.04426   0.49137   0.0000000000
C          C       0.32813   0.88802   0.51712   0.0000000000
C          C       0.38484   0.02962   0.54846   0.0000000000
C          C       0.21400   0.54426   0.50863   0.0000000000
C          C       0.17187   0.38802   0.48287   0.0000000000
C          C       0.11516   0.52962   0.45154   0.0000000000
C          C       0.71400   0.04426   0.50863   0.0000000000
C          C       0.67187   0.88802   0.48287   0.0000000000
C          C       0.61516   0.02962   0.45154   0.0000000000
H          H       0.75761   0.56986   0.47883   0.0000000000
H          H       0.82962   0.33266   0.52594   0.0000000000
H          H       0.91153   0.55999   0.57702   0.0000000000
H          H       0.25761   0.06986   0.47883   0.0000000000
H          H       0.32962   0.83266   0.52594   0.0000000000
H          H       0.41153   0.05999   0.57702   0.0000000000
H          H       0.24239   0.56986   0.52117   0.0000000000
H          H       0.17038   0.33266   0.47406   0.0000000000
H          H       0.08847   0.55999   0.42298   0.0000000000
H          H       0.74239   0.06986   0.52117   0.0000000000
H          H       0.67038   0.83266   0.47406   0.0000000000
H          H       0.58847   0.05999   0.42298   0.0000000000
H          H       0.77936   0.51979   0.48138   0.0000000000
H          H       0.84367   0.39037   0.52731   0.0000000000
H          H       0.87577   0.55160   0.56373   0.0000000000
H          H       0.27936   0.01979   0.48138   0.0000000000
H          H       0.34367   0.89037   0.52731   0.0000000000
H          H       0.37577   0.05160   0.56373   0.0000000000
H          H       0.22064   0.51979   0.51862   0.0000000000
H          H       0.15633   0.39037   0.47269   0.0000000000
H          H       0.12423   0.55160   0.43627   0.0000000000
H          H       0.72064   0.01979   0.51862   0.0000000000
H          H       0.65633   0.89037   0.47269   0.0000000000
H          H       0.62423   0.05160   0.43627   0.0000000000
C          C       0.82049   0.51680   0.50789   0.0000000000
C          C       0.82452   0.45348   0.50664   0.0000000000
C          C       0.85416   0.49116   0.51526   0.0000000000
C          C       0.32049   0.01680   0.50789   0.0000000000
C          C       0.32452   0.95348   0.50664   0.0000000000
C          C       0.35416   0.99116   0.51526   0.0000000000
C          C       0.17951   0.51680   0.49211   0.0000000000
C          C       0.17548   0.45348   0.49336   0.0000000000
C          C       0.14584   0.49116   0.48474   0.0000000000
C          C       0.67951   0.01680   0.49211   0.0000000000
C          C       0.67548   0.95348   0.49336   0.0000000000
C          C       0.64584   0.99116   0.48474   0.0000000000
C          C       0.78076   0.60914   0.50307   0.0000000000
C          C       0.79837   0.34759   0.50285   0.0000000000
C          C       0.92009   0.50589   0.53733   0.0000000000
C          C       0.28076   0.10914   0.50307   0.0000000000
C          C       0.29837   0.84759   0.50285   0.0000000000
C          C       0.42009   0.00589   0.53733   0.0000000000
C          C       0.21924   0.60914   0.49693   0.0000000000
C          C       0.20163   0.34759   0.49715   0.0000000000
C          C       0.07991   0.50589   0.46267   0.0000000000
C          C       0.71924   0.10914   0.49693   0.0000000000
C          C       0.70163   0.84759   0.49715   0.0000000000
C          C       0.57991   0.00589   0.46267   0.0000000000
C          C       0.80757   0.54733   0.50599   0.0000000000
C          C       0.81575   0.41880   0.50480   0.0000000000
C          C       0.87586   0.49558   0.52146   0.0000000000
C          C       0.30757   0.04733   0.50599   0.0000000000
C          C       0.31575   0.91880   0.50480   0.0000000000
C          C       0.37586   0.99558   0.52146   0.0000000000
C          C       0.19243   0.54733   0.49401   0.0000000000
C          C       0.18425   0.41880   0.49520   0.0000000000
C          C       0.12414   0.49558   0.47854   0.0000000000
C          C       0.69243   0.04733   0.49401   0.0000000000
C          C       0.68425   0.91880   0.49520   0.0000000000
C          C       0.62414   0.99558   0.47854   0.0000000000
N          N       0.84123   0.51943   0.51348   0.0000000000
N          N       0.81280   0.48327   0.50460   0.0000000000
N          N       0.84514   0.45868   0.51153   0.0000000000
N          N       0.34123   0.01943   0.51348   0.0000000000
N          N       0.31280   0.98326   0.50460   0.0000000000
N          N       0.34514   0.95868   0.51153   0.0000000000
N          N       0.15877   0.51943   0.48652   0.0000000000
N          N       0.18720   0.48327   0.49540   0.0000000000
N          N       0.15486   0.45868   0.48847   0.0000000000
N          N       0.65877   0.01943   0.48652   0.0000000000
N          N       0.68720   0.98326   0.49540   0.0000000000
N          N       0.65486   0.95868   0.48847   0.0000000000
H          H       0.79860   0.21655   0.13388   0.0000000000
H          H       0.98633   0.57886   0.46628   0.0000000000
H          H       0.71530   0.67459   0.87048   0.0000000000
H          H       0.29860   0.71655   0.13388   0.0000000000
H          H       0.48633   0.07886   0.46628   0.0000000000
H          H       0.21530   0.17459   0.87048   0.0000000000
H          H       0.20140   0.21655   0.86612   0.0000000000
H          H       0.01367   0.57886   0.53372   0.0000000000
H          H       0.28470   0.67459   0.12952   0.0000000000
H          H       0.70140   0.71655   0.86612   0.0000000000
H          H       0.51367   0.07886   0.53372   0.0000000000
H          H       0.78470   0.17459   0.12952   0.0000000000
