data_DL-COF-1-bor
_audit_creation_date              0000-00-00
_audit_creation_method            'LanYouShi'
_symmetry_space_group_name_H-M    'P1'
_cell_length_a                    26.5613995
_cell_length_b                    26.5613995
_cell_length_c                    26.5613995
_cell_angle_alpha                 90.0000000
_cell_angle_beta                  90.0000000
_cell_angle_gamma                 90.0000000
loop_
_atom_site_label
_atom_site_type_symbol
_atom_site_fract_x
_atom_site_fract_y
_atom_site_fract_z
_atom_site_U_iso_or_equiv
_atom_site_adp_type
_atom_site_occupancy
        B1          B  0.1944600  0.8156101  0.7445800    0.00000       Uiso       1.00
        C1          C  0.9484800  0.4028800  0.9010000    0.00000       Uiso       1.00
        O1          O  0.8333400  0.2292600  0.7603900    0.00000       Uiso       1.00
        N1          N  0.0645600  0.0668800  0.4341000    0.00000       Uiso       1.00
        C2          C  0.0339600  0.0336500  0.4659900    0.00000       Uiso       1.00
        H1          H  0.0245400  0.5231000  0.0923300    0.00000       Uiso       1.00
        H2          H  0.0242200  0.4078000  0.9765500    0.00000       Uiso       1.00
        H3          H  0.9083101  0.5237800  0.9761300    0.00000       Uiso       1.00
        C3          C  0.8284200  0.1507700  0.7017900    0.00000       Uiso       1.00
        C4          C  0.8099300  0.1019500  0.6936300    0.00000       Uiso       1.00
        C5          C  0.8331800  0.0702500  0.6586700    0.00000       Uiso       1.00
        C6          C  0.8747600  0.0870400  0.6307800    0.00000       Uiso       1.00
        C7          C  0.8693800  0.1680400  0.6731700    0.00000       Uiso       1.00
        C8          C  0.8921900  0.1365300  0.6376800    0.00000       Uiso       1.00
        H4          H  0.9881800  0.3999600  0.8921300    0.00000       Uiso       1.00
        H5          H  0.7784500  0.0876000  0.7152400    0.00000       Uiso       1.00
        H6          H  0.8191400  0.0322400  0.6539600    0.00000       Uiso       1.00
        H7          H  0.8843600  0.2055700  0.6786900    0.00000       Uiso       1.00
        H8          H  0.9243400  0.1504000  0.6167901    0.00000       Uiso       1.00
        B2          B  0.8055400  0.1843900  0.7445800    0.00000       Uiso       1.00
        C9          C  0.0515200  0.5971200  0.9010000    0.00000       Uiso       1.00
        O2          O  0.1666600  0.7707400  0.7603900    0.00000       Uiso       1.00
        N2          N  0.9354400  0.9331200  0.4341000    0.00000       Uiso       1.00
       C10          C  0.9660400  0.9663500  0.4659900    0.00000       Uiso       1.00
        H9          H  0.9754601  0.4769000  0.0923300    0.00000       Uiso       1.00
       H10          H  0.9757800  0.5922000  0.9765500    0.00000       Uiso       1.00
       H11          H  0.0916900  0.4762200  0.9761300    0.00000       Uiso       1.00
       C11          C  0.1715800  0.8492301  0.7017900    0.00000       Uiso       1.00
       C12          C  0.1900700  0.8980501  0.6936300    0.00000       Uiso       1.00
       C13          C  0.1668200  0.9297500  0.6586700    0.00000       Uiso       1.00
       C14          C  0.1252400  0.9129601  0.6307800    0.00000       Uiso       1.00
       C15          C  0.1306200  0.8319600  0.6731700    0.00000       Uiso       1.00
       C16          C  0.1078100  0.8634700  0.6376800    0.00000       Uiso       1.00
       H12          H  0.0118200  0.6000400  0.8921300    0.00000       Uiso       1.00
       H13          H  0.2215500  0.9124000  0.7152400    0.00000       Uiso       1.00
       H14          H  0.1808600  0.9677600  0.6539600    0.00000       Uiso       1.00
       H15          H  0.1156400  0.7944300  0.6786900    0.00000       Uiso       1.00
       H16          H  0.0756600  0.8496000  0.6167901    0.00000       Uiso       1.00
        B3          B  0.8055400  0.8156101  0.2554200    0.00000       Uiso       1.00
       C17          C  0.0515200  0.4028800  0.0990000    0.00000       Uiso       1.00
        O3          O  0.1666600  0.2292600  0.2396100    0.00000       Uiso       1.00
        N3          N  0.9354400  0.0668800  0.5659000    0.00000       Uiso       1.00
       C18          C  0.9660400  0.0336500  0.5340100    0.00000       Uiso       1.00
       H17          H  0.9754601  0.5231000  0.9076700    0.00000       Uiso       1.00
       H18          H  0.9757800  0.4078000  0.0234500    0.00000       Uiso       1.00
       H19          H  0.0916900  0.5237800  0.0238700    0.00000       Uiso       1.00
       C19          C  0.1715800  0.1507700  0.2982100    0.00000       Uiso       1.00
       C20          C  0.1900700  0.1019500  0.3063700    0.00000       Uiso       1.00
       C21          C  0.1668200  0.0702500  0.3413300    0.00000       Uiso       1.00
       C22          C  0.1252400  0.0870400  0.3692200    0.00000       Uiso       1.00
       C23          C  0.1306200  0.1680400  0.3268300    0.00000       Uiso       1.00
       C24          C  0.1078100  0.1365300  0.3623200    0.00000       Uiso       1.00
       H20          H  0.0118200  0.3999600  0.1078700    0.00000       Uiso       1.00
       H21          H  0.2215500  0.0876000  0.2847600    0.00000       Uiso       1.00
       H22          H  0.1808600  0.0322400  0.3460400    0.00000       Uiso       1.00
       H23          H  0.1156400  0.2055700  0.3213100    0.00000       Uiso       1.00
       H24          H  0.0756600  0.1504000  0.3832100    0.00000       Uiso       1.00
        B4          B  0.1944600  0.1843900  0.2554200    0.00000       Uiso       1.00
       C25          C  0.9484800  0.5971200  0.0990000    0.00000       Uiso       1.00
        O4          O  0.8333400  0.7707400  0.2396100    0.00000       Uiso       1.00
        N4          N  0.0645600  0.9331200  0.5659000    0.00000       Uiso       1.00
       C26          C  0.0339600  0.9663500  0.5340100    0.00000       Uiso       1.00
       H25          H  0.0245400  0.4769000  0.9076700    0.00000       Uiso       1.00
       H26          H  0.0242200  0.5922000  0.0234500    0.00000       Uiso       1.00
       H27          H  0.9083101  0.4762200  0.0238700    0.00000       Uiso       1.00
       C27          C  0.8284200  0.8492301  0.2982100    0.00000       Uiso       1.00
       C28          C  0.8099300  0.8980501  0.3063700    0.00000       Uiso       1.00
       C29          C  0.8331800  0.9297500  0.3413300    0.00000       Uiso       1.00
       C30          C  0.8747600  0.9129601  0.3692200    0.00000       Uiso       1.00
       C31          C  0.8693800  0.8319600  0.3268300    0.00000       Uiso       1.00
       C32          C  0.8921900  0.8634700  0.3623200    0.00000       Uiso       1.00
       H28          H  0.9881800  0.6000400  0.1078700    0.00000       Uiso       1.00
       H29          H  0.7784500  0.9124000  0.2847600    0.00000       Uiso       1.00
       H30          H  0.8191400  0.9677600  0.3460400    0.00000       Uiso       1.00
       H31          H  0.8843600  0.7944300  0.3213100    0.00000       Uiso       1.00
       H32          H  0.9243400  0.8496000  0.3832100    0.00000       Uiso       1.00
        B5          B  0.7445800  0.1944600  0.8156101    0.00000       Uiso       1.00
       C33          C  0.9010000  0.9484800  0.4028800    0.00000       Uiso       1.00
        O5          O  0.7603900  0.8333400  0.2292600    0.00000       Uiso       1.00
        N5          N  0.4341000  0.0645600  0.0668800    0.00000       Uiso       1.00
       C34          C  0.4659900  0.0339600  0.0336500    0.00000       Uiso       1.00
       H33          H  0.0923300  0.0245400  0.5231000    0.00000       Uiso       1.00
       H34          H  0.9765500  0.0242200  0.4078000    0.00000       Uiso       1.00
       H35          H  0.9761300  0.9083101  0.5237800    0.00000       Uiso       1.00
       C35          C  0.7017900  0.8284200  0.1507700    0.00000       Uiso       1.00
       C36          C  0.6936300  0.8099300  0.1019500    0.00000       Uiso       1.00
       C37          C  0.6586700  0.8331800  0.0702500    0.00000       Uiso       1.00
       C38          C  0.6307800  0.8747600  0.0870400    0.00000       Uiso       1.00
       C39          C  0.6731700  0.8693800  0.1680400    0.00000       Uiso       1.00
       C40          C  0.6376800  0.8921900  0.1365300    0.00000       Uiso       1.00
       H36          H  0.8921300  0.9881800  0.3999600    0.00000       Uiso       1.00
       H37          H  0.7152400  0.7784500  0.0876000    0.00000       Uiso       1.00
       H38          H  0.6539600  0.8191400  0.0322400    0.00000       Uiso       1.00
       H39          H  0.6786900  0.8843600  0.2055700    0.00000       Uiso       1.00
       H40          H  0.6167901  0.9243400  0.1504000    0.00000       Uiso       1.00
        B6          B  0.7445800  0.8055400  0.1843900    0.00000       Uiso       1.00
       C41          C  0.9010000  0.0515200  0.5971200    0.00000       Uiso       1.00
        O6          O  0.7603900  0.1666600  0.7707400    0.00000       Uiso       1.00
        N6          N  0.4341000  0.9354400  0.9331200    0.00000       Uiso       1.00
       C42          C  0.4659900  0.9660400  0.9663500    0.00000       Uiso       1.00
       H41          H  0.0923300  0.9754601  0.4769000    0.00000       Uiso       1.00
       H42          H  0.9765500  0.9757800  0.5922000    0.00000       Uiso       1.00
       H43          H  0.9761300  0.0916900  0.4762200    0.00000       Uiso       1.00
       C43          C  0.7017900  0.1715800  0.8492301    0.00000       Uiso       1.00
       C44          C  0.6936300  0.1900700  0.8980501    0.00000       Uiso       1.00
       C45          C  0.6586700  0.1668200  0.9297500    0.00000       Uiso       1.00
       C46          C  0.6307800  0.1252400  0.9129601    0.00000       Uiso       1.00
       C47          C  0.6731700  0.1306200  0.8319600    0.00000       Uiso       1.00
       C48          C  0.6376800  0.1078100  0.8634700    0.00000       Uiso       1.00
       H44          H  0.8921300  0.0118200  0.6000400    0.00000       Uiso       1.00
       H45          H  0.7152400  0.2215500  0.9124000    0.00000       Uiso       1.00
       H46          H  0.6539600  0.1808600  0.9677600    0.00000       Uiso       1.00
       H47          H  0.6786900  0.1156400  0.7944300    0.00000       Uiso       1.00
       H48          H  0.6167901  0.0756600  0.8496000    0.00000       Uiso       1.00
        B7          B  0.2554200  0.8055400  0.8156101    0.00000       Uiso       1.00
       C49          C  0.0990000  0.0515200  0.4028800    0.00000       Uiso       1.00
        O7          O  0.2396100  0.1666600  0.2292600    0.00000       Uiso       1.00
        N7          N  0.5659000  0.9354400  0.0668800    0.00000       Uiso       1.00
       C50          C  0.5340100  0.9660400  0.0336500    0.00000       Uiso       1.00
       H49          H  0.9076700  0.9754601  0.5231000    0.00000       Uiso       1.00
       H50          H  0.0234500  0.9757800  0.4078000    0.00000       Uiso       1.00
       H51          H  0.0238700  0.0916900  0.5237800    0.00000       Uiso       1.00
       C51          C  0.2982100  0.1715800  0.1507700    0.00000       Uiso       1.00
       C52          C  0.3063700  0.1900700  0.1019500    0.00000       Uiso       1.00
       C53          C  0.3413300  0.1668200  0.0702500    0.00000       Uiso       1.00
       C54          C  0.3692200  0.1252400  0.0870400    0.00000       Uiso       1.00
       C55          C  0.3268300  0.1306200  0.1680400    0.00000       Uiso       1.00
       C56          C  0.3623200  0.1078100  0.1365300    0.00000       Uiso       1.00
       H52          H  0.1078700  0.0118200  0.3999600    0.00000       Uiso       1.00
       H53          H  0.2847600  0.2215500  0.0876000    0.00000       Uiso       1.00
       H54          H  0.3460400  0.1808600  0.0322400    0.00000       Uiso       1.00
       H55          H  0.3213100  0.1156400  0.2055700    0.00000       Uiso       1.00
       H56          H  0.3832100  0.0756600  0.1504000    0.00000       Uiso       1.00
        B8          B  0.2554200  0.1944600  0.1843900    0.00000       Uiso       1.00
       C57          C  0.0990000  0.9484800  0.5971200    0.00000       Uiso       1.00
        O8          O  0.2396100  0.8333400  0.7707400    0.00000       Uiso       1.00
        N8          N  0.5659000  0.0645600  0.9331200    0.00000       Uiso       1.00
       C58          C  0.5340100  0.0339600  0.9663500    0.00000       Uiso       1.00
       H57          H  0.9076700  0.0245400  0.4769000    0.00000       Uiso       1.00
       H58          H  0.0234500  0.0242200  0.5922000    0.00000       Uiso       1.00
       H59          H  0.0238700  0.9083101  0.4762200    0.00000       Uiso       1.00
       C59          C  0.2982100  0.8284200  0.8492301    0.00000       Uiso       1.00
       C60          C  0.3063700  0.8099300  0.8980501    0.00000       Uiso       1.00
       C61          C  0.3413300  0.8331800  0.9297500    0.00000       Uiso       1.00
       C62          C  0.3692200  0.8747600  0.9129601    0.00000       Uiso       1.00
       C63          C  0.3268300  0.8693800  0.8319600    0.00000       Uiso       1.00
       C64          C  0.3623200  0.8921900  0.8634700    0.00000       Uiso       1.00
       H60          H  0.1078700  0.9881800  0.6000400    0.00000       Uiso       1.00
       H61          H  0.2847600  0.7784500  0.9124000    0.00000       Uiso       1.00
       H62          H  0.3460400  0.8191400  0.9677600    0.00000       Uiso       1.00
       H63          H  0.3213100  0.8843600  0.7944300    0.00000       Uiso       1.00
       H64          H  0.3832100  0.9243400  0.8496000    0.00000       Uiso       1.00
        B9          B  0.8156101  0.7445800  0.1944600    0.00000       Uiso       1.00
       C65          C  0.4028800  0.9010000  0.9484800    0.00000       Uiso       1.00
        O9          O  0.2292600  0.7603900  0.8333400    0.00000       Uiso       1.00
        N9          N  0.0668800  0.4341000  0.0645600    0.00000       Uiso       1.00
       C66          C  0.0336500  0.4659900  0.0339600    0.00000       Uiso       1.00
       H65          H  0.5231000  0.0923300  0.0245400    0.00000       Uiso       1.00
       H66          H  0.4078000  0.9765500  0.0242200    0.00000       Uiso       1.00
       H67          H  0.5237800  0.9761300  0.9083101    0.00000       Uiso       1.00
       C67          C  0.1507700  0.7017900  0.8284200    0.00000       Uiso       1.00
       C68          C  0.1019500  0.6936300  0.8099300    0.00000       Uiso       1.00
       C69          C  0.0702500  0.6586700  0.8331800    0.00000       Uiso       1.00
       C70          C  0.0870400  0.6307800  0.8747600    0.00000       Uiso       1.00
       C71          C  0.1680400  0.6731700  0.8693800    0.00000       Uiso       1.00
       C72          C  0.1365300  0.6376800  0.8921900    0.00000       Uiso       1.00
       H68          H  0.3999600  0.8921300  0.9881800    0.00000       Uiso       1.00
       H69          H  0.0876000  0.7152400  0.7784500    0.00000       Uiso       1.00
       H70          H  0.0322400  0.6539600  0.8191400    0.00000       Uiso       1.00
       H71          H  0.2055700  0.6786900  0.8843600    0.00000       Uiso       1.00
       H72          H  0.1504000  0.6167901  0.9243400    0.00000       Uiso       1.00
       B10          B  0.1843900  0.7445800  0.8055400    0.00000       Uiso       1.00
       C73          C  0.5971200  0.9010000  0.0515200    0.00000       Uiso       1.00
       O10          O  0.7707400  0.7603900  0.1666600    0.00000       Uiso       1.00
       N10          N  0.9331200  0.4341000  0.9354400    0.00000       Uiso       1.00
       C74          C  0.9663500  0.4659900  0.9660400    0.00000       Uiso       1.00
       H73          H  0.4769000  0.0923300  0.9754601    0.00000       Uiso       1.00
       H74          H  0.5922000  0.9765500  0.9757800    0.00000       Uiso       1.00
       H75          H  0.4762200  0.9761300  0.0916900    0.00000       Uiso       1.00
       C75          C  0.8492301  0.7017900  0.1715800    0.00000       Uiso       1.00
       C76          C  0.8980501  0.6936300  0.1900700    0.00000       Uiso       1.00
       C77          C  0.9297500  0.6586700  0.1668200    0.00000       Uiso       1.00
       C78          C  0.9129601  0.6307800  0.1252400    0.00000       Uiso       1.00
       C79          C  0.8319600  0.6731700  0.1306200    0.00000       Uiso       1.00
       C80          C  0.8634700  0.6376800  0.1078100    0.00000       Uiso       1.00
       H76          H  0.6000400  0.8921300  0.0118200    0.00000       Uiso       1.00
       H77          H  0.9124000  0.7152400  0.2215500    0.00000       Uiso       1.00
       H78          H  0.9677600  0.6539600  0.1808600    0.00000       Uiso       1.00
       H79          H  0.7944300  0.6786900  0.1156400    0.00000       Uiso       1.00
       H80          H  0.8496000  0.6167901  0.0756600    0.00000       Uiso       1.00
       B11          B  0.8156101  0.2554200  0.8055400    0.00000       Uiso       1.00
       C81          C  0.4028800  0.0990000  0.0515200    0.00000       Uiso       1.00
       O11          O  0.2292600  0.2396100  0.1666600    0.00000       Uiso       1.00
       N11          N  0.0668800  0.5659000  0.9354400    0.00000       Uiso       1.00
       C82          C  0.0336500  0.5340100  0.9660400    0.00000       Uiso       1.00
       H81          H  0.5231000  0.9076700  0.9754601    0.00000       Uiso       1.00
       H82          H  0.4078000  0.0234500  0.9757800    0.00000       Uiso       1.00
       H83          H  0.5237800  0.0238700  0.0916900    0.00000       Uiso       1.00
       C83          C  0.1507700  0.2982100  0.1715800    0.00000       Uiso       1.00
       C84          C  0.1019500  0.3063700  0.1900700    0.00000       Uiso       1.00
       C85          C  0.0702500  0.3413300  0.1668200    0.00000       Uiso       1.00
       C86          C  0.0870400  0.3692200  0.1252400    0.00000       Uiso       1.00
       C87          C  0.1680400  0.3268300  0.1306200    0.00000       Uiso       1.00
       C88          C  0.1365300  0.3623200  0.1078100    0.00000       Uiso       1.00
       H84          H  0.3999600  0.1078700  0.0118200    0.00000       Uiso       1.00
       H85          H  0.0876000  0.2847600  0.2215500    0.00000       Uiso       1.00
       H86          H  0.0322400  0.3460400  0.1808600    0.00000       Uiso       1.00
       H87          H  0.2055700  0.3213100  0.1156400    0.00000       Uiso       1.00
       H88          H  0.1504000  0.3832100  0.0756600    0.00000       Uiso       1.00
       B12          B  0.1843900  0.2554200  0.1944600    0.00000       Uiso       1.00
       C89          C  0.5971200  0.0990000  0.9484800    0.00000       Uiso       1.00
       O12          O  0.7707400  0.2396100  0.8333400    0.00000       Uiso       1.00
       N12          N  0.9331200  0.5659000  0.0645600    0.00000       Uiso       1.00
       C90          C  0.9663500  0.5340100  0.0339600    0.00000       Uiso       1.00
       H89          H  0.4769000  0.9076700  0.0245400    0.00000       Uiso       1.00
       H90          H  0.5922000  0.0234500  0.0242200    0.00000       Uiso       1.00
       H91          H  0.4762200  0.0238700  0.9083101    0.00000       Uiso       1.00
       C91          C  0.8492301  0.2982100  0.8284200    0.00000       Uiso       1.00
       C92          C  0.8980501  0.3063700  0.8099300    0.00000       Uiso       1.00
       C93          C  0.9297500  0.3413300  0.8331800    0.00000       Uiso       1.00
       C94          C  0.9129601  0.3692200  0.8747600    0.00000       Uiso       1.00
       C95          C  0.8319600  0.3268300  0.8693800    0.00000       Uiso       1.00
       C96          C  0.8634700  0.3623200  0.8921900    0.00000       Uiso       1.00
       H92          H  0.6000400  0.1078700  0.9881800    0.00000       Uiso       1.00
       H93          H  0.9124000  0.2847600  0.7784500    0.00000       Uiso       1.00
       H94          H  0.9677600  0.3460400  0.8191400    0.00000       Uiso       1.00
       H95          H  0.7944300  0.3213100  0.8843600    0.00000       Uiso       1.00
       H96          H  0.8496000  0.3832100  0.9243400    0.00000       Uiso       1.00
       C97          C  0.0000000  0.0000000  0.4326600    0.00000       Uiso       1.00
       C98          C  0.0000000  0.0000000  0.5673400    0.00000       Uiso       1.00
       C99          C  0.4326600  0.0000000  0.0000000    0.00000       Uiso       1.00
      C100          C  0.5673400  0.0000000  0.0000000    0.00000       Uiso       1.00
      C101          C  0.0000000  0.4326600  0.0000000    0.00000       Uiso       1.00
      C102          C  0.0000000  0.5673400  0.0000000    0.00000       Uiso       1.00
      C103          C  0.0000000  0.0667600  0.5000000    0.00000       Uiso       1.00
      C104          C  0.0000000  0.9332400  0.5000000    0.00000       Uiso       1.00
      C105          C  0.5000000  0.0000000  0.0667600    0.00000       Uiso       1.00
      C106          C  0.5000000  0.0000000  0.9332400    0.00000       Uiso       1.00
      C107          C  0.0667600  0.5000000  0.0000000    0.00000       Uiso       1.00
      C108          C  0.9332400  0.5000000  0.0000000    0.00000       Uiso       1.00
      C109          C  0.0675500  0.0000000  0.5000000    0.00000       Uiso       1.00
      C110          C  0.9324500  0.0000000  0.5000000    0.00000       Uiso       1.00
      C111          C  0.5000000  0.0675500  0.0000000    0.00000       Uiso       1.00
      C112          C  0.5000000  0.9324500  0.0000000    0.00000       Uiso       1.00
      C113          C  0.0000000  0.5000000  0.0675500    0.00000       Uiso       1.00
      C114          C  0.0000000  0.5000000  0.9324500    0.00000       Uiso       1.00
