data_crystal
 
_cell_length_a    26.75900
_cell_length_b    26.75900
_cell_length_c    26.75900
_cell_angle_alpha 90.00000
_cell_angle_beta  90.00000
_cell_angle_gamma 90.00000
 
_symmetry_space_group_name_Hall 'P 1'
_symmetry_space_group_name_H-M  'P 1'
 
loop_
_symmetry_equiv_pos_as_xyz
 'x,y,z' 
 
loop_
_atom_site_label
_atom_site_type_symbol
_atom_site_fract_x
_atom_site_fract_y
_atom_site_fract_z
_atom_site_charge
B          B       0.16947   0.83890   0.76906   0.0000000000
C          C       0.96023   0.39858   0.90469   0.0000000000
O          O       0.85762   0.20551   0.78586   0.0000000000
N          N       0.06536   0.06706   0.43547   0.0000000000
C          C       0.03396   0.03339   0.46601   0.0000000000
H          H       0.02479   0.52256   0.09138   0.0000000000
H          H       0.02219   0.41050   0.97916   0.0000000000
H          H       0.90912   0.52364   0.97640   0.0000000000
C          C       0.85060   0.13132   0.72270   0.0000000000
C          C       0.81793   0.09989   0.69637   0.0000000000
C          C       0.83517   0.07175   0.65598   0.0000000000
C          C       0.88561   0.07377   0.64178   0.0000000000
C          C       0.90101   0.13430   0.70784   0.0000000000
C          C       0.91842   0.10506   0.66808   0.0000000000
H          H       0.97961   0.41722   0.87309   0.0000000000
H          H       0.77895   0.09691   0.70695   0.0000000000
H          H       0.80927   0.04743   0.63659   0.0000000000
H          H       0.93392   0.16381   0.73275   0.0000000000
F          F       0.95763   0.10648   0.65808   0.0000000000
B          B       0.83053   0.16110   0.76906   0.0000000000
C          C       0.03977   0.60142   0.90469   0.0000000000
O          O       0.14238   0.79449   0.78586   0.0000000000
N          N       0.93464   0.93294   0.43547   0.0000000000
C          C       0.96604   0.96661   0.46601   0.0000000000
H          H       0.97521   0.47744   0.09138   0.0000000000
H          H       0.97781   0.58950   0.97916   0.0000000000
H          H       0.09088   0.47636   0.97640   0.0000000000
C          C       0.14940   0.86868   0.72270   0.0000000000
C          C       0.18207   0.90011   0.69637   0.0000000000
C          C       0.16483   0.92825   0.65598   0.0000000000
C          C       0.11439   0.92623   0.64178   0.0000000000
C          C       0.09899   0.86570   0.70784   0.0000000000
C          C       0.08158   0.89494   0.66808   0.0000000000
H          H       0.02039   0.58278   0.87309   0.0000000000
H          H       0.22105   0.90309   0.70695   0.0000000000
H          H       0.19073   0.95257   0.63659   0.0000000000
H          H       0.06608   0.83619   0.73275   0.0000000000
F          F       0.04237   0.89352   0.65808   0.0000000000
B          B       0.83053   0.83890   0.23094   0.0000000000
C          C       0.03977   0.39858   0.09531   0.0000000000
O          O       0.14238   0.20551   0.21414   0.0000000000
N          N       0.93464   0.06706   0.56453   0.0000000000
C          C       0.96604   0.03339   0.53399   0.0000000000
H          H       0.97521   0.52256   0.90862   0.0000000000
H          H       0.97781   0.41050   0.02084   0.0000000000
H          H       0.09088   0.52364   0.02360   0.0000000000
C          C       0.14940   0.13132   0.27730   0.0000000000
C          C       0.18207   0.09989   0.30363   0.0000000000
C          C       0.16483   0.07175   0.34402   0.0000000000
C          C       0.11439   0.07377   0.35822   0.0000000000
C          C       0.09899   0.13430   0.29216   0.0000000000
C          C       0.08158   0.10506   0.33192   0.0000000000
H          H       0.02039   0.41722   0.12691   0.0000000000
H          H       0.22105   0.09691   0.29305   0.0000000000
H          H       0.19073   0.04743   0.36341   0.0000000000
H          H       0.06608   0.16381   0.26725   0.0000000000
F          F       0.04237   0.10648   0.34192   0.0000000000
B          B       0.16947   0.16110   0.23094   0.0000000000
C          C       0.96023   0.60142   0.09531   0.0000000000
O          O       0.85762   0.79449   0.21414   0.0000000000
N          N       0.06536   0.93294   0.56453   0.0000000000
C          C       0.03396   0.96661   0.53399   0.0000000000
H          H       0.02479   0.47744   0.90862   0.0000000000
H          H       0.02219   0.58950   0.02084   0.0000000000
H          H       0.90912   0.47636   0.02360   0.0000000000
C          C       0.85060   0.86868   0.27730   0.0000000000
C          C       0.81793   0.90011   0.30363   0.0000000000
C          C       0.83517   0.92825   0.34402   0.0000000000
C          C       0.88561   0.92623   0.35822   0.0000000000
C          C       0.90101   0.86570   0.29216   0.0000000000
C          C       0.91842   0.89494   0.33192   0.0000000000
H          H       0.97961   0.58278   0.12691   0.0000000000
H          H       0.77895   0.90309   0.29305   0.0000000000
H          H       0.80927   0.95257   0.36341   0.0000000000
H          H       0.93392   0.83619   0.26725   0.0000000000
F          F       0.95763   0.89352   0.34192   0.0000000000
B          B       0.76906   0.16947   0.83890   0.0000000000
C          C       0.90469   0.96023   0.39858   0.0000000000
O          O       0.78586   0.85762   0.20551   0.0000000000
N          N       0.43547   0.06536   0.06706   0.0000000000
C          C       0.46601   0.03396   0.03339   0.0000000000
H          H       0.09138   0.02479   0.52256   0.0000000000
H          H       0.97916   0.02219   0.41050   0.0000000000
H          H       0.97640   0.90912   0.52364   0.0000000000
C          C       0.72270   0.85060   0.13132   0.0000000000
C          C       0.69637   0.81793   0.09989   0.0000000000
C          C       0.65598   0.83517   0.07175   0.0000000000
C          C       0.64178   0.88561   0.07377   0.0000000000
C          C       0.70784   0.90101   0.13430   0.0000000000
C          C       0.66808   0.91842   0.10506   0.0000000000
H          H       0.87309   0.97961   0.41722   0.0000000000
H          H       0.70695   0.77895   0.09691   0.0000000000
H          H       0.63659   0.80927   0.04743   0.0000000000
H          H       0.73275   0.93392   0.16381   0.0000000000
F          F       0.65808   0.95763   0.10648   0.0000000000
B          B       0.76906   0.83053   0.16110   0.0000000000
C          C       0.90469   0.03977   0.60142   0.0000000000
O          O       0.78586   0.14238   0.79449   0.0000000000
N          N       0.43547   0.93464   0.93294   0.0000000000
C          C       0.46601   0.96604   0.96661   0.0000000000
H          H       0.09138   0.97521   0.47744   0.0000000000
H          H       0.97916   0.97781   0.58950   0.0000000000
H          H       0.97640   0.09088   0.47636   0.0000000000
C          C       0.72270   0.14940   0.86868   0.0000000000
C          C       0.69637   0.18207   0.90011   0.0000000000
C          C       0.65598   0.16483   0.92825   0.0000000000
C          C       0.64178   0.11439   0.92623   0.0000000000
C          C       0.70784   0.09899   0.86570   0.0000000000
C          C       0.66808   0.08158   0.89494   0.0000000000
H          H       0.87309   0.02039   0.58278   0.0000000000
H          H       0.70695   0.22105   0.90309   0.0000000000
H          H       0.63659   0.19073   0.95257   0.0000000000
H          H       0.73275   0.06608   0.83619   0.0000000000
F          F       0.65808   0.04237   0.89352   0.0000000000
B          B       0.23094   0.83053   0.83890   0.0000000000
C          C       0.09531   0.03977   0.39858   0.0000000000
O          O       0.21414   0.14238   0.20551   0.0000000000
N          N       0.56453   0.93464   0.06706   0.0000000000
C          C       0.53399   0.96604   0.03339   0.0000000000
H          H       0.90862   0.97521   0.52256   0.0000000000
H          H       0.02084   0.97781   0.41050   0.0000000000
H          H       0.02360   0.09088   0.52364   0.0000000000
C          C       0.27730   0.14940   0.13132   0.0000000000
C          C       0.30363   0.18207   0.09989   0.0000000000
C          C       0.34402   0.16483   0.07175   0.0000000000
C          C       0.35822   0.11439   0.07377   0.0000000000
C          C       0.29216   0.09899   0.13430   0.0000000000
C          C       0.33192   0.08158   0.10506   0.0000000000
H          H       0.12691   0.02039   0.41722   0.0000000000
H          H       0.29305   0.22105   0.09691   0.0000000000
H          H       0.36341   0.19073   0.04743   0.0000000000
H          H       0.26725   0.06608   0.16381   0.0000000000
F          F       0.34192   0.04237   0.10648   0.0000000000
B          B       0.23094   0.16947   0.16110   0.0000000000
C          C       0.09531   0.96023   0.60142   0.0000000000
O          O       0.21414   0.85762   0.79449   0.0000000000
N          N       0.56453   0.06536   0.93294   0.0000000000
C          C       0.53399   0.03396   0.96661   0.0000000000
H          H       0.90862   0.02479   0.47744   0.0000000000
H          H       0.02084   0.02219   0.58950   0.0000000000
H          H       0.02360   0.90912   0.47636   0.0000000000
C          C       0.27730   0.85060   0.86868   0.0000000000
C          C       0.30363   0.81793   0.90011   0.0000000000
C          C       0.34402   0.83517   0.92825   0.0000000000
C          C       0.35822   0.88561   0.92623   0.0000000000
C          C       0.29216   0.90101   0.86570   0.0000000000
C          C       0.33192   0.91842   0.89494   0.0000000000
H          H       0.12691   0.97961   0.58278   0.0000000000
H          H       0.29305   0.77895   0.90309   0.0000000000
H          H       0.36341   0.80927   0.95257   0.0000000000
H          H       0.26725   0.93392   0.83619   0.0000000000
F          F       0.34192   0.95763   0.89352   0.0000000000
B          B       0.83890   0.76906   0.16947   0.0000000000
C          C       0.39858   0.90469   0.96023   0.0000000000
O          O       0.20551   0.78586   0.85762   0.0000000000
N          N       0.06706   0.43547   0.06536   0.0000000000
C          C       0.03339   0.46601   0.03396   0.0000000000
H          H       0.52256   0.09138   0.02479   0.0000000000
H          H       0.41050   0.97916   0.02219   0.0000000000
H          H       0.52364   0.97640   0.90912   0.0000000000
C          C       0.13132   0.72270   0.85060   0.0000000000
C          C       0.09989   0.69637   0.81793   0.0000000000
C          C       0.07175   0.65598   0.83517   0.0000000000
C          C       0.07377   0.64178   0.88561   0.0000000000
C          C       0.13430   0.70784   0.90101   0.0000000000
C          C       0.10506   0.66808   0.91842   0.0000000000
H          H       0.41722   0.87309   0.97961   0.0000000000
H          H       0.09691   0.70695   0.77895   0.0000000000
H          H       0.04743   0.63659   0.80927   0.0000000000
H          H       0.16381   0.73275   0.93392   0.0000000000
F          F       0.10648   0.65808   0.95763   0.0000000000
B          B       0.16110   0.76906   0.83053   0.0000000000
C          C       0.60142   0.90469   0.03977   0.0000000000
O          O       0.79449   0.78586   0.14238   0.0000000000
N          N       0.93294   0.43547   0.93464   0.0000000000
C          C       0.96661   0.46601   0.96604   0.0000000000
H          H       0.47744   0.09138   0.97521   0.0000000000
H          H       0.58950   0.97916   0.97781   0.0000000000
H          H       0.47636   0.97640   0.09088   0.0000000000
C          C       0.86868   0.72270   0.14940   0.0000000000
C          C       0.90011   0.69637   0.18207   0.0000000000
C          C       0.92825   0.65598   0.16483   0.0000000000
C          C       0.92623   0.64178   0.11439   0.0000000000
C          C       0.86570   0.70784   0.09899   0.0000000000
C          C       0.89494   0.66808   0.08158   0.0000000000
H          H       0.58278   0.87309   0.02039   0.0000000000
H          H       0.90309   0.70695   0.22105   0.0000000000
H          H       0.95257   0.63659   0.19073   0.0000000000
H          H       0.83619   0.73275   0.06608   0.0000000000
F          F       0.89352   0.65808   0.04237   0.0000000000
B          B       0.83890   0.23094   0.83053   0.0000000000
C          C       0.39858   0.09531   0.03977   0.0000000000
O          O       0.20551   0.21414   0.14238   0.0000000000
N          N       0.06706   0.56453   0.93464   0.0000000000
C          C       0.03339   0.53399   0.96604   0.0000000000
H          H       0.52256   0.90862   0.97521   0.0000000000
H          H       0.41050   0.02084   0.97781   0.0000000000
H          H       0.52364   0.02360   0.09088   0.0000000000
C          C       0.13132   0.27730   0.14940   0.0000000000
C          C       0.09989   0.30363   0.18207   0.0000000000
C          C       0.07175   0.34402   0.16483   0.0000000000
C          C       0.07377   0.35822   0.11439   0.0000000000
C          C       0.13430   0.29216   0.09899   0.0000000000
C          C       0.10506   0.33192   0.08158   0.0000000000
H          H       0.41722   0.12691   0.02039   0.0000000000
H          H       0.09691   0.29305   0.22105   0.0000000000
H          H       0.04743   0.36341   0.19073   0.0000000000
H          H       0.16381   0.26725   0.06608   0.0000000000
F          F       0.10648   0.34192   0.04237   0.0000000000
B          B       0.16110   0.23094   0.16947   0.0000000000
C          C       0.60142   0.09531   0.96023   0.0000000000
O          O       0.79449   0.21414   0.85762   0.0000000000
N          N       0.93294   0.56453   0.06536   0.0000000000
C          C       0.96661   0.53399   0.03396   0.0000000000
H          H       0.47744   0.90862   0.02479   0.0000000000
H          H       0.58950   0.02084   0.02219   0.0000000000
H          H       0.47636   0.02360   0.90912   0.0000000000
C          C       0.86868   0.27730   0.85060   0.0000000000
C          C       0.90011   0.30363   0.81793   0.0000000000
C          C       0.92825   0.34402   0.83517   0.0000000000
C          C       0.92623   0.35822   0.88561   0.0000000000
C          C       0.86570   0.29216   0.90101   0.0000000000
C          C       0.89494   0.33192   0.91842   0.0000000000
H          H       0.58278   0.12691   0.97961   0.0000000000
H          H       0.90309   0.29305   0.77895   0.0000000000
H          H       0.95257   0.36341   0.80927   0.0000000000
H          H       0.83619   0.26725   0.93392   0.0000000000
F          F       0.89352   0.34192   0.95763   0.0000000000
C          C       0.00000   0.00000   0.43276   0.0000000000
C          C       0.00000   0.00000   0.56724   0.0000000000
C          C       0.43276   0.00000   0.00000   0.0000000000
C          C       0.56724   0.00000   0.00000   0.0000000000
C          C       0.00000   0.43276   0.00000   0.0000000000
C          C       0.00000   0.56724   0.00000   0.0000000000
C          C       0.00000   0.06608   0.50000   0.0000000000
C          C       0.00000   0.93392   0.50000   0.0000000000
C          C       0.50000   0.00000   0.06608   0.0000000000
C          C       0.50000   0.00000   0.93392   0.0000000000
C          C       0.06608   0.50000   0.00000   0.0000000000
C          C       0.93392   0.50000   0.00000   0.0000000000
C          C       0.06691   0.00000   0.50000   0.0000000000
C          C       0.93309   0.00000   0.50000   0.0000000000
C          C       0.50000   0.06691   0.00000   0.0000000000
C          C       0.50000   0.93309   0.00000   0.0000000000
C          C       0.00000   0.50000   0.06691   0.0000000000
C          C       0.00000   0.50000   0.93309   0.0000000000
