data_DL-COF-2-bor
_audit_creation_date              0000-00-00
_audit_creation_method            'LanYouShi'
_symmetry_space_group_name_H-M    'P1'
_cell_length_a                    26.7590008
_cell_length_b                    26.7590008
_cell_length_c                    26.7590008
_cell_angle_alpha                 90.0000000
_cell_angle_beta                  90.0000000
_cell_angle_gamma                 90.0000000
loop_
_atom_site_label
_atom_site_type_symbol
_atom_site_fract_x
_atom_site_fract_y
_atom_site_fract_z
_atom_site_U_iso_or_equiv
_atom_site_adp_type
_atom_site_occupancy
        B1          B  0.1694700  0.8389000  0.7690600    0.00000       Uiso       1.00
        C1          C  0.9602299  0.3985800  0.9046900    0.00000       Uiso       1.00
        O1          O  0.8576199  0.2055100  0.7858600    0.00000       Uiso       1.00
        N1          N  0.0653600  0.0670600  0.4354700    0.00000       Uiso       1.00
        C2          C  0.0339600  0.0333900  0.4660100    0.00000       Uiso       1.00
        H1          H  0.0247900  0.5225600  0.0913800    0.00000       Uiso       1.00
        H2          H  0.0221900  0.4105000  0.9791600    0.00000       Uiso       1.00
        H3          H  0.9091200  0.5236400  0.9764000    0.00000       Uiso       1.00
        C3          C  0.8506000  0.1313200  0.7227000    0.00000       Uiso       1.00
        C4          C  0.8179300  0.0998900  0.6963700    0.00000       Uiso       1.00
        C5          C  0.8351700  0.0717500  0.6559800    0.00000       Uiso       1.00
        C6          C  0.8856100  0.0737700  0.6417800    0.00000       Uiso       1.00
        C7          C  0.9010100  0.1343000  0.7078400    0.00000       Uiso       1.00
        C8          C  0.9184200  0.1050600  0.6680800    0.00000       Uiso       1.00
        H4          H  0.9796100  0.4172200  0.8730900    0.00000       Uiso       1.00
        H5          H  0.7789500  0.0969100  0.7069499    0.00000       Uiso       1.00
        H6          H  0.8092700  0.0474300  0.6365899    0.00000       Uiso       1.00
        H7          H  0.9339200  0.1638100  0.7327499    0.00000       Uiso       1.00
        F1          F  0.9576300  0.1064800  0.6580799    0.00000       Uiso       1.00
        B2          B  0.8305299  0.1611000  0.7690600    0.00000       Uiso       1.00
        C9          C  0.0397700  0.6014200  0.9046900    0.00000       Uiso       1.00
        O2          O  0.1423800  0.7944900  0.7858600    0.00000       Uiso       1.00
        N2          N  0.9346400  0.9329400  0.4354700    0.00000       Uiso       1.00
       C10          C  0.9660400  0.9666100  0.4660100    0.00000       Uiso       1.00
        H8          H  0.9752100  0.4774400  0.0913800    0.00000       Uiso       1.00
        H9          H  0.9778100  0.5895000  0.9791600    0.00000       Uiso       1.00
       H10          H  0.0908800  0.4763600  0.9764000    0.00000       Uiso       1.00
       C11          C  0.1494000  0.8686800  0.7227000    0.00000       Uiso       1.00
       C12          C  0.1820700  0.9001100  0.6963700    0.00000       Uiso       1.00
       C13          C  0.1648300  0.9282500  0.6559800    0.00000       Uiso       1.00
       C14          C  0.1143900  0.9262300  0.6417800    0.00000       Uiso       1.00
       C15          C  0.0989900  0.8656999  0.7078400    0.00000       Uiso       1.00
       C16          C  0.0815800  0.8949400  0.6680800    0.00000       Uiso       1.00
       H11          H  0.0203900  0.5827800  0.8730900    0.00000       Uiso       1.00
       H12          H  0.2210500  0.9030899  0.7069499    0.00000       Uiso       1.00
       H13          H  0.1907300  0.9525700  0.6365899    0.00000       Uiso       1.00
       H14          H  0.0660800  0.8361900  0.7327499    0.00000       Uiso       1.00
        F2          F  0.0423700  0.8935200  0.6580799    0.00000       Uiso       1.00
        B3          B  0.8305299  0.8389000  0.2309400    0.00000       Uiso       1.00
       C17          C  0.0397700  0.3985800  0.0953100    0.00000       Uiso       1.00
        O3          O  0.1423800  0.2055100  0.2141400    0.00000       Uiso       1.00
        N3          N  0.9346400  0.0670600  0.5645300    0.00000       Uiso       1.00
       C18          C  0.9660400  0.0333900  0.5339900    0.00000       Uiso       1.00
       H15          H  0.9752100  0.5225600  0.9086200    0.00000       Uiso       1.00
       H16          H  0.9778100  0.4105000  0.0208400    0.00000       Uiso       1.00
       H17          H  0.0908800  0.5236400  0.0236000    0.00000       Uiso       1.00
       C19          C  0.1494000  0.1313200  0.2773000    0.00000       Uiso       1.00
       C20          C  0.1820700  0.0998900  0.3036300    0.00000       Uiso       1.00
       C21          C  0.1648300  0.0717500  0.3440200    0.00000       Uiso       1.00
       C22          C  0.1143900  0.0737700  0.3582200    0.00000       Uiso       1.00
       C23          C  0.0989900  0.1343000  0.2921600    0.00000       Uiso       1.00
       C24          C  0.0815800  0.1050600  0.3319200    0.00000       Uiso       1.00
       H18          H  0.0203900  0.4172200  0.1269100    0.00000       Uiso       1.00
       H19          H  0.2210500  0.0969100  0.2930500    0.00000       Uiso       1.00
       H20          H  0.1907300  0.0474300  0.3634100    0.00000       Uiso       1.00
       H21          H  0.0660800  0.1638100  0.2672500    0.00000       Uiso       1.00
        F3          F  0.0423700  0.1064800  0.3419200    0.00000       Uiso       1.00
        B4          B  0.1694700  0.1611000  0.2309400    0.00000       Uiso       1.00
       C25          C  0.9602299  0.6014200  0.0953100    0.00000       Uiso       1.00
        O4          O  0.8576199  0.7944900  0.2141400    0.00000       Uiso       1.00
        N4          N  0.0653600  0.9329400  0.5645300    0.00000       Uiso       1.00
       C26          C  0.0339600  0.9666100  0.5339900    0.00000       Uiso       1.00
       H22          H  0.0247900  0.4774400  0.9086200    0.00000       Uiso       1.00
       H23          H  0.0221900  0.5895000  0.0208400    0.00000       Uiso       1.00
       H24          H  0.9091200  0.4763600  0.0236000    0.00000       Uiso       1.00
       C27          C  0.8506000  0.8686800  0.2773000    0.00000       Uiso       1.00
       C28          C  0.8179300  0.9001100  0.3036300    0.00000       Uiso       1.00
       C29          C  0.8351700  0.9282500  0.3440200    0.00000       Uiso       1.00
       C30          C  0.8856100  0.9262300  0.3582200    0.00000       Uiso       1.00
       C31          C  0.9010100  0.8656999  0.2921600    0.00000       Uiso       1.00
       C32          C  0.9184200  0.8949400  0.3319200    0.00000       Uiso       1.00
       H25          H  0.9796100  0.5827800  0.1269100    0.00000       Uiso       1.00
       H26          H  0.7789500  0.9030899  0.2930500    0.00000       Uiso       1.00
       H27          H  0.8092700  0.9525700  0.3634100    0.00000       Uiso       1.00
       H28          H  0.9339200  0.8361900  0.2672500    0.00000       Uiso       1.00
        F4          F  0.9576300  0.8935200  0.3419200    0.00000       Uiso       1.00
        B5          B  0.7690600  0.1694700  0.8389000    0.00000       Uiso       1.00
       C33          C  0.9046900  0.9602299  0.3985800    0.00000       Uiso       1.00
        O5          O  0.7858600  0.8576199  0.2055100    0.00000       Uiso       1.00
        N5          N  0.4354700  0.0653600  0.0670600    0.00000       Uiso       1.00
       C34          C  0.4660100  0.0339600  0.0333900    0.00000       Uiso       1.00
       H29          H  0.0913800  0.0247900  0.5225600    0.00000       Uiso       1.00
       H30          H  0.9791600  0.0221900  0.4105000    0.00000       Uiso       1.00
       H31          H  0.9764000  0.9091200  0.5236400    0.00000       Uiso       1.00
       C35          C  0.7227000  0.8506000  0.1313200    0.00000       Uiso       1.00
       C36          C  0.6963700  0.8179300  0.0998900    0.00000       Uiso       1.00
       C37          C  0.6559800  0.8351700  0.0717500    0.00000       Uiso       1.00
       C38          C  0.6417800  0.8856100  0.0737700    0.00000       Uiso       1.00
       C39          C  0.7078400  0.9010100  0.1343000    0.00000       Uiso       1.00
       C40          C  0.6680800  0.9184200  0.1050600    0.00000       Uiso       1.00
       H32          H  0.8730900  0.9796100  0.4172200    0.00000       Uiso       1.00
       H33          H  0.7069499  0.7789500  0.0969100    0.00000       Uiso       1.00
       H34          H  0.6365899  0.8092700  0.0474300    0.00000       Uiso       1.00
       H35          H  0.7327499  0.9339200  0.1638100    0.00000       Uiso       1.00
        F5          F  0.6580799  0.9576300  0.1064800    0.00000       Uiso       1.00
        B6          B  0.7690600  0.8305299  0.1611000    0.00000       Uiso       1.00
       C41          C  0.9046900  0.0397700  0.6014200    0.00000       Uiso       1.00
        O6          O  0.7858600  0.1423800  0.7944900    0.00000       Uiso       1.00
        N6          N  0.4354700  0.9346400  0.9329400    0.00000       Uiso       1.00
       C42          C  0.4660100  0.9660400  0.9666100    0.00000       Uiso       1.00
       H36          H  0.0913800  0.9752100  0.4774400    0.00000       Uiso       1.00
       H37          H  0.9791600  0.9778100  0.5895000    0.00000       Uiso       1.00
       H38          H  0.9764000  0.0908800  0.4763600    0.00000       Uiso       1.00
       C43          C  0.7227000  0.1494000  0.8686800    0.00000       Uiso       1.00
       C44          C  0.6963700  0.1820700  0.9001100    0.00000       Uiso       1.00
       C45          C  0.6559800  0.1648300  0.9282500    0.00000       Uiso       1.00
       C46          C  0.6417800  0.1143900  0.9262300    0.00000       Uiso       1.00
       C47          C  0.7078400  0.0989900  0.8656999    0.00000       Uiso       1.00
       C48          C  0.6680800  0.0815800  0.8949400    0.00000       Uiso       1.00
       H39          H  0.8730900  0.0203900  0.5827800    0.00000       Uiso       1.00
       H40          H  0.7069499  0.2210500  0.9030899    0.00000       Uiso       1.00
       H41          H  0.6365899  0.1907300  0.9525700    0.00000       Uiso       1.00
       H42          H  0.7327499  0.0660800  0.8361900    0.00000       Uiso       1.00
        F6          F  0.6580799  0.0423700  0.8935200    0.00000       Uiso       1.00
        B7          B  0.2309400  0.8305299  0.8389000    0.00000       Uiso       1.00
       C49          C  0.0953100  0.0397700  0.3985800    0.00000       Uiso       1.00
        O7          O  0.2141400  0.1423800  0.2055100    0.00000       Uiso       1.00
        N7          N  0.5645300  0.9346400  0.0670600    0.00000       Uiso       1.00
       C50          C  0.5339900  0.9660400  0.0333900    0.00000       Uiso       1.00
       H43          H  0.9086200  0.9752100  0.5225600    0.00000       Uiso       1.00
       H44          H  0.0208400  0.9778100  0.4105000    0.00000       Uiso       1.00
       H45          H  0.0236000  0.0908800  0.5236400    0.00000       Uiso       1.00
       C51          C  0.2773000  0.1494000  0.1313200    0.00000       Uiso       1.00
       C52          C  0.3036300  0.1820700  0.0998900    0.00000       Uiso       1.00
       C53          C  0.3440200  0.1648300  0.0717500    0.00000       Uiso       1.00
       C54          C  0.3582200  0.1143900  0.0737700    0.00000       Uiso       1.00
       C55          C  0.2921600  0.0989900  0.1343000    0.00000       Uiso       1.00
       C56          C  0.3319200  0.0815800  0.1050600    0.00000       Uiso       1.00
       H46          H  0.1269100  0.0203900  0.4172200    0.00000       Uiso       1.00
       H47          H  0.2930500  0.2210500  0.0969100    0.00000       Uiso       1.00
       H48          H  0.3634100  0.1907300  0.0474300    0.00000       Uiso       1.00
       H49          H  0.2672500  0.0660800  0.1638100    0.00000       Uiso       1.00
        F7          F  0.3419200  0.0423700  0.1064800    0.00000       Uiso       1.00
        B8          B  0.2309400  0.1694700  0.1611000    0.00000       Uiso       1.00
       C57          C  0.0953100  0.9602299  0.6014200    0.00000       Uiso       1.00
        O8          O  0.2141400  0.8576199  0.7944900    0.00000       Uiso       1.00
        N8          N  0.5645300  0.0653600  0.9329400    0.00000       Uiso       1.00
       C58          C  0.5339900  0.0339600  0.9666100    0.00000       Uiso       1.00
       H50          H  0.9086200  0.0247900  0.4774400    0.00000       Uiso       1.00
       H51          H  0.0208400  0.0221900  0.5895000    0.00000       Uiso       1.00
       H52          H  0.0236000  0.9091200  0.4763600    0.00000       Uiso       1.00
       C59          C  0.2773000  0.8506000  0.8686800    0.00000       Uiso       1.00
       C60          C  0.3036300  0.8179300  0.9001100    0.00000       Uiso       1.00
       C61          C  0.3440200  0.8351700  0.9282500    0.00000       Uiso       1.00
       C62          C  0.3582200  0.8856100  0.9262300    0.00000       Uiso       1.00
       C63          C  0.2921600  0.9010100  0.8656999    0.00000       Uiso       1.00
       C64          C  0.3319200  0.9184200  0.8949400    0.00000       Uiso       1.00
       H53          H  0.1269100  0.9796100  0.5827800    0.00000       Uiso       1.00
       H54          H  0.2930500  0.7789500  0.9030899    0.00000       Uiso       1.00
       H55          H  0.3634100  0.8092700  0.9525700    0.00000       Uiso       1.00
       H56          H  0.2672500  0.9339200  0.8361900    0.00000       Uiso       1.00
        F8          F  0.3419200  0.9576300  0.8935200    0.00000       Uiso       1.00
        B9          B  0.8389000  0.7690600  0.1694700    0.00000       Uiso       1.00
       C65          C  0.3985800  0.9046900  0.9602299    0.00000       Uiso       1.00
        O9          O  0.2055100  0.7858600  0.8576199    0.00000       Uiso       1.00
        N9          N  0.0670600  0.4354700  0.0653600    0.00000       Uiso       1.00
       C66          C  0.0333900  0.4660100  0.0339600    0.00000       Uiso       1.00
       H57          H  0.5225600  0.0913800  0.0247900    0.00000       Uiso       1.00
       H58          H  0.4105000  0.9791600  0.0221900    0.00000       Uiso       1.00
       H59          H  0.5236400  0.9764000  0.9091200    0.00000       Uiso       1.00
       C67          C  0.1313200  0.7227000  0.8506000    0.00000       Uiso       1.00
       C68          C  0.0998900  0.6963700  0.8179300    0.00000       Uiso       1.00
       C69          C  0.0717500  0.6559800  0.8351700    0.00000       Uiso       1.00
       C70          C  0.0737700  0.6417800  0.8856100    0.00000       Uiso       1.00
       C71          C  0.1343000  0.7078400  0.9010100    0.00000       Uiso       1.00
       C72          C  0.1050600  0.6680800  0.9184200    0.00000       Uiso       1.00
       H60          H  0.4172200  0.8730900  0.9796100    0.00000       Uiso       1.00
       H61          H  0.0969100  0.7069499  0.7789500    0.00000       Uiso       1.00
       H62          H  0.0474300  0.6365899  0.8092700    0.00000       Uiso       1.00
       H63          H  0.1638100  0.7327499  0.9339200    0.00000       Uiso       1.00
        F9          F  0.1064800  0.6580799  0.9576300    0.00000       Uiso       1.00
       B10          B  0.1611000  0.7690600  0.8305299    0.00000       Uiso       1.00
       C73          C  0.6014200  0.9046900  0.0397700    0.00000       Uiso       1.00
       O10          O  0.7944900  0.7858600  0.1423800    0.00000       Uiso       1.00
       N10          N  0.9329400  0.4354700  0.9346400    0.00000       Uiso       1.00
       C74          C  0.9666100  0.4660100  0.9660400    0.00000       Uiso       1.00
       H64          H  0.4774400  0.0913800  0.9752100    0.00000       Uiso       1.00
       H65          H  0.5895000  0.9791600  0.9778100    0.00000       Uiso       1.00
       H66          H  0.4763600  0.9764000  0.0908800    0.00000       Uiso       1.00
       C75          C  0.8686800  0.7227000  0.1494000    0.00000       Uiso       1.00
       C76          C  0.9001100  0.6963700  0.1820700    0.00000       Uiso       1.00
       C77          C  0.9282500  0.6559800  0.1648300    0.00000       Uiso       1.00
       C78          C  0.9262300  0.6417800  0.1143900    0.00000       Uiso       1.00
       C79          C  0.8656999  0.7078400  0.0989900    0.00000       Uiso       1.00
       C80          C  0.8949400  0.6680800  0.0815800    0.00000       Uiso       1.00
       H67          H  0.5827800  0.8730900  0.0203900    0.00000       Uiso       1.00
       H68          H  0.9030899  0.7069499  0.2210500    0.00000       Uiso       1.00
       H69          H  0.9525700  0.6365899  0.1907300    0.00000       Uiso       1.00
       H70          H  0.8361900  0.7327499  0.0660800    0.00000       Uiso       1.00
       F10          F  0.8935200  0.6580799  0.0423700    0.00000       Uiso       1.00
       B11          B  0.8389000  0.2309400  0.8305299    0.00000       Uiso       1.00
       C81          C  0.3985800  0.0953100  0.0397700    0.00000       Uiso       1.00
       O11          O  0.2055100  0.2141400  0.1423800    0.00000       Uiso       1.00
       N11          N  0.0670600  0.5645300  0.9346400    0.00000       Uiso       1.00
       C82          C  0.0333900  0.5339900  0.9660400    0.00000       Uiso       1.00
       H71          H  0.5225600  0.9086200  0.9752100    0.00000       Uiso       1.00
       H72          H  0.4105000  0.0208400  0.9778100    0.00000       Uiso       1.00
       H73          H  0.5236400  0.0236000  0.0908800    0.00000       Uiso       1.00
       C83          C  0.1313200  0.2773000  0.1494000    0.00000       Uiso       1.00
       C84          C  0.0998900  0.3036300  0.1820700    0.00000       Uiso       1.00
       C85          C  0.0717500  0.3440200  0.1648300    0.00000       Uiso       1.00
       C86          C  0.0737700  0.3582200  0.1143900    0.00000       Uiso       1.00
       C87          C  0.1343000  0.2921600  0.0989900    0.00000       Uiso       1.00
       C88          C  0.1050600  0.3319200  0.0815800    0.00000       Uiso       1.00
       H74          H  0.4172200  0.1269100  0.0203900    0.00000       Uiso       1.00
       H75          H  0.0969100  0.2930500  0.2210500    0.00000       Uiso       1.00
       H76          H  0.0474300  0.3634100  0.1907300    0.00000       Uiso       1.00
       H77          H  0.1638100  0.2672500  0.0660800    0.00000       Uiso       1.00
       F11          F  0.1064800  0.3419200  0.0423700    0.00000       Uiso       1.00
       B12          B  0.1611000  0.2309400  0.1694700    0.00000       Uiso       1.00
       C89          C  0.6014200  0.0953100  0.9602299    0.00000       Uiso       1.00
       O12          O  0.7944900  0.2141400  0.8576199    0.00000       Uiso       1.00
       N12          N  0.9329400  0.5645300  0.0653600    0.00000       Uiso       1.00
       C90          C  0.9666100  0.5339900  0.0339600    0.00000       Uiso       1.00
       H78          H  0.4774400  0.9086200  0.0247900    0.00000       Uiso       1.00
       H79          H  0.5895000  0.0208400  0.0221900    0.00000       Uiso       1.00
       H80          H  0.4763600  0.0236000  0.9091200    0.00000       Uiso       1.00
       C91          C  0.8686800  0.2773000  0.8506000    0.00000       Uiso       1.00
       C92          C  0.9001100  0.3036300  0.8179300    0.00000       Uiso       1.00
       C93          C  0.9282500  0.3440200  0.8351700    0.00000       Uiso       1.00
       C94          C  0.9262300  0.3582200  0.8856100    0.00000       Uiso       1.00
       C95          C  0.8656999  0.2921600  0.9010100    0.00000       Uiso       1.00
       C96          C  0.8949400  0.3319200  0.9184200    0.00000       Uiso       1.00
       H81          H  0.5827800  0.1269100  0.9796100    0.00000       Uiso       1.00
       H82          H  0.9030899  0.2930500  0.7789500    0.00000       Uiso       1.00
       H83          H  0.9525700  0.3634100  0.8092700    0.00000       Uiso       1.00
       H84          H  0.8361900  0.2672500  0.9339200    0.00000       Uiso       1.00
       F12          F  0.8935200  0.3419200  0.9576300    0.00000       Uiso       1.00
       C97          C  0.0000000  0.0000000  0.4327600    0.00000       Uiso       1.00
       C98          C  0.0000000  0.0000000  0.5672400    0.00000       Uiso       1.00
       C99          C  0.4327600  0.0000000  0.0000000    0.00000       Uiso       1.00
      C100          C  0.5672400  0.0000000  0.0000000    0.00000       Uiso       1.00
      C101          C  0.0000000  0.4327600  0.0000000    0.00000       Uiso       1.00
      C102          C  0.0000000  0.5672400  0.0000000    0.00000       Uiso       1.00
      C103          C  0.0000000  0.0660800  0.5000000    0.00000       Uiso       1.00
      C104          C  0.0000000  0.9339200  0.5000000    0.00000       Uiso       1.00
      C105          C  0.5000000  0.0000000  0.0660800    0.00000       Uiso       1.00
      C106          C  0.5000000  0.0000000  0.9339200    0.00000       Uiso       1.00
      C107          C  0.0660800  0.5000000  0.0000000    0.00000       Uiso       1.00
      C108          C  0.9339200  0.5000000  0.0000000    0.00000       Uiso       1.00
      C109          C  0.0669100  0.0000000  0.5000000    0.00000       Uiso       1.00
      C110          C  0.9330900  0.0000000  0.5000000    0.00000       Uiso       1.00
      C111          C  0.5000000  0.0669100  0.0000000    0.00000       Uiso       1.00
      C112          C  0.5000000  0.9330900  0.0000000    0.00000       Uiso       1.00
      C113          C  0.0000000  0.5000000  0.0669100    0.00000       Uiso       1.00
      C114          C  0.0000000  0.5000000  0.9330900    0.00000       Uiso       1.00
